/*--------------------------------*- C++ -*----------------------------------*\
| =========                 |                                                 |
| \\      /  F ield         | OpenFOAM: The Open Source CFD Toolbox           |
|  \\    /   O peration     | Version:  v2406                                 |
|   \\  /    A nd           | Website:  www.openfoam.com                      |
|    \\/     M anipulation  |                                                 |
\*---------------------------------------------------------------------------*/
FoamFile
{
    version     2.0;
    format      ascii;
    class       volScalarField;
    object      p_rgh;
}
// * * * * * * * * * * * * * * * * * * * * * * * * * * * * * * * * * * * * * //

dimensions      [1 -1 -2 0 0 0 0];

internalField     uniform 0;

boundaryField
{
    atomosphere
    {
        type            totalPressure;
        p0              uniform 0;
        U               U;
        phi             phi;
        rho             rho;
        psi             none;
        gamma           1;
        value           uniform 0;
    }
    back
    {
        type            symmetry;
    }
    base
    {
        type            symmetry;
    }
    front
    {
        type            symmetry;
    }
    inlet
    {
        type            fixedFluxPressure;
        value           $internalField;
    }
    outlet
    {
        type            fixedFluxPressure;
    }
    hullWall1
    {
        type            fixedFluxPressure;
    }
    overset1
    {
        type            overset;
    }
    hullWall2
    {
        type            fixedFluxPressure;
    }
    overset2
    {
        type            overset;
    }
}


// ************************************************************************* //
