/*--------------------------------*- C++ -*----------------------------------*\
| =========                 |                                                 |
| \\      /  F ield         | OpenFOAM: The Open Source CFD Toolbox           |
|  \\    /   O peration     | Version:  2406                                  |
|   \\  /    A nd           | Website:  www.openfoam.com                      |
|    \\/     M anipulation  |                                                 |
\*---------------------------------------------------------------------------*/
FoamFile
{
    version     2.0;
    format      ascii;
    arch        "LSB;label=32;scalar=64";
    class       polyBoundaryMesh;
    location    "constant/polyMesh";
    object      boundary;
}
// * * * * * * * * * * * * * * * * * * * * * * * * * * * * * * * * * * * * * //


6
(
atomosphere
{
    type patch;
    nFaces 8000;
    startFace 942400;
}

back
{
    type symmetry;
    nFaces 8000;
    startFace 950400;
}

base
{
    type symmetry;
    nFaces 8000;
    startFace 958400;
}

front
{
    type symmetry;
    nFaces 8000;
    startFace 966400;
}

inlet
{
    type patch;
    nFaces 1600;
    startFace 974400;
}

outlet
{
    type patch;
    nFaces 1600;
    startFace 976000;
}

)


// ************************************************************************* //
