/*--------------------------------*- C++ -*----------------------------------*\
| =========                 |                                                 |
| \\      /  F ield         | OpenFOAM: The Open Source CFD Toolbox           |
|  \\    /   O peration     | Version:  2406                                  |
|   \\  /    A nd           | Website:  www.openfoam.com                      |
|    \\/     M anipulation  |                                                 |
\*---------------------------------------------------------------------------*/
FoamFile
{
    version     2.0;
    format      ascii;
    arch        "LSB;label=32;scalar=64";
    class       dictionary;
    location    "constant/polyMesh";
    object      meshMetaDict;
}
// * * * * * * * * * * * * * * * * * * * * * * * * * * * * * * * * * * * * * //

surfaceFile     "model.fms";

surfaceMeta
{
    nPoints         8;
    nFacets         12;
    nPatches        6;
    nFeatureEdges   12;
    patches
    {
        outlet
        {
            type            empty;
            nFacets         2;
        }
        inlet
        {
            type            empty;
            nFacets         2;
        }
        front
        {
            type            empty;
            nFacets         2;
        }
        back
        {
            type            empty;
            nFacets         2;
        }
        base
        {
            type            empty;
            nFacets         2;
        }
        atomosphere
        {
            type            empty;
            nFacets         2;
        }
    }
    pointSubsets
    {
    }
    facetSubsets
    {
    }
    featureEdgeSubsets
    {
    }
}
