/*--------------------------------*- C++ -*----------------------------------*\
| =========                 |                                                 |
| \\      /  F ield         | OpenFOAM: The Open Source CFD Toolbox           |
|  \\    /   O peration     | Version:  2406                                  |
|   \\  /    A nd           | Website:  www.openfoam.com                      |
|    \\/     M anipulation  |                                                 |
\*---------------------------------------------------------------------------*/
FoamFile
{
    version     2.0;
    format      ascii;
    arch        "LSB;label=32;scalar=64";
    class       extendedFeatureEdgeMesh;
    location    "constant/extendedFeatureEdgeMesh";
    object      BLADES.extendedFeatureEdgeMesh;
}
// * * * * * * * * * * * * * * * * * * * * * * * * * * * * * * * * * * * * * //

// points

1698
(
(-3.41161 -0.0101747 0.14737)
(-3.41162 0.0187038 0.121112)
(-3.41162 0.0138026 0.144731)
(-3.41162 -0.0200896 0.125382)
(-3.41162 -0.00224355 0.109156)
(-3.43525 0.0111583 0.155687)
(-3.43471 0.00824665 0.148099)
(-3.43479 0.00802546 0.147938)
(-3.41891 -0.0208118 0.186784)
(-3.43499 0.00459318 0.109777)
(-3.43516 0.0050688 0.107805)
(-3.43555 0.00660363 0.101909)
(-3.43536 0.00690354 0.0998926)
(-3.43478 0.00428217 0.11007)
(-3.43466 0.00409129 0.110258)
(-3.43493 0.00445128 0.11038)
(-3.4363 0.0135904 0.0806532)
(-3.41851 0.0503175 0.0952435)
(-3.41849 0.0493858 0.0968551)
(-3.43384 0.0536345 0.0435433)
(-3.43536 0.0303392 0.126951)
(-3.43555 0.0283287 0.127289)
(-3.43516 0.0222466 0.127651)
(-3.43499 0.0202249 0.127808)
(-3.43478 0.0198498 0.127603)
(-3.43493 0.0196074 0.12786)
(-3.43466 0.0196118 0.12748)
(-3.4363 0.0507033 0.127365)
(-3.41849 0.0463558 0.166415)
(-3.41851 0.0481764 0.166803)
(-3.43384 0.0983712 0.153982)
(-3.43499 -0.0153384 0.142847)
(-3.43555 -0.0215894 0.14803)
(-3.43536 -0.0230173 0.149486)
(-3.43478 -0.0149144 0.142793)
(-3.43466 -0.0146493 0.142753)
(-3.43493 -0.0148691 0.142443)
(-3.4363 -0.0397357 0.16112)
(-3.41851 -0.0608726 0.127729)
(-3.41849 -0.0591716 0.126972)
(-3.43384 -0.0939447 0.167605)
(-3.43499 -0.0173862 0.119071)
(-3.43555 -0.0242474 0.114728)
(-3.43536 -0.0260725 0.11382)
(-3.43478 -0.0172033 0.119458)
(-3.43466 -0.0170833 0.119697)
(-3.43493 -0.0168564 0.119393)
(-3.4363 -0.042304 0.101515)
(-3.41851 -0.0170785 0.0710939)
(-3.41849 -0.0158336 0.072478)
(-3.43384 -0.0652233 0.051963)
(-3.43522 0.00637636 0.146041)
(-3.43495 0.00789089 0.147532)
(-3.43539 0.00748979 0.145512)
(-3.43676 0.00809602 0.144033)
(-3.43743 0.00624913 0.144789)
(-3.41038 -0.0101543 0.147886)
(-3.40935 -0.00982346 0.14814)
(-3.40778 -0.0106562 0.14679)
(-3.40865 -0.00853521 0.148779)
(-3.40934 0.0188711 0.120278)
(-3.40865 0.0182122 0.119016)
(-3.40776 0.0187468 0.121841)
(-3.41039 0.0189919 0.120685)
(-3.43522 0.00453481 0.11246)
(-3.43676 0.00196296 0.113074)
(-3.43539 0.00332304 0.112234)
(-3.43743 0.00390136 0.113549)
(-3.41039 0.0143 0.144873)
(-3.43522 0.0176546 0.128582)
(-3.40934 0.0146493 0.144632)
(-3.40776 0.0131246 0.144997)
(-3.43539 0.0174955 0.127359)
(-3.43676 0.0162758 0.126326)
(-3.43743 0.0164238 0.128316)
(-3.40865 0.0156462 0.143616)
(-3.40934 -0.0207168 0.125959)
(-3.40865 -0.0209256 0.127367)
(-3.40776 -0.0196976 0.124767)
(-3.41039 -0.0205755 0.125559)
(-3.43522 -0.0137138 0.14071)
(-3.43676 -0.0112722 0.141725)
(-3.43539 -0.0128666 0.141606)
(-3.43743 -0.0125617 0.140202)
(-3.40934 -0.00298633 0.108737)
(-3.40865 -0.00439042 0.108974)
(-3.40776 -0.00153838 0.109339)
(-3.41039 -0.00256237 0.108748)
(-3.43522 -0.014852 0.119956)
(-3.43676 -0.0150626 0.122592)
(-3.43539 -0.0154418 0.121039)
(-3.43743 -0.0140127 0.120895)
(-3.43649 0.0135512 0.0806427)
(-3.43707 0.0220205 0.0620181)
(-3.43724 0.0219643 0.0619805)
(-3.4189 -0.016784 0.0710436)
(-3.41898 -0.0180435 0.0696615)
(-3.43649 -0.0423261 0.101549)
(-3.43707 -0.0574219 0.0877388)
(-3.43724 -0.0574751 0.0877806)
(-3.43501 0.00814588 0.148143)
(-3.43554 0.0111232 0.155702)
(-3.43547 0.0125188 0.159519)
(-3.4363 0.0177436 0.177087)
(-3.43649 0.0177838 0.177082)
(-3.43707 0.0218793 0.197128)
(-3.43724 0.0219469 0.197125)
(-3.4189 0.0504564 0.095508)
(-3.41898 0.0513816 0.093883)
(-3.43563 0.00692769 0.0998986)
(-3.43566 0.00715142 0.0999526)
(-3.43566 0.0303587 0.127205)
(-3.43563 0.0303409 0.126976)
(-3.4189 0.0479677 0.167017)
(-3.43649 0.0507012 0.127325)
(-3.41898 0.0497991 0.167395)
(-3.43707 0.0710313 0.129624)
(-3.43724 0.0710498 0.129559)
(-3.4189 -0.0608294 0.127433)
(-3.41898 -0.0625331 0.128204)
(-3.43563 -0.0230333 0.149466)
(-3.43566 -0.0231825 0.149291)
(-3.43649 -0.0397102 0.161152)
(-3.43707 -0.0575092 0.171241)
(-3.43724 -0.0574858 0.171305)
(-3.43563 -0.0260594 0.113799)
(-3.43566 -0.0259389 0.113603)
(-3.43514 0.0104535 0.15378)
(-3.43502 0.00973304 0.151879)
(-3.43487 0.00899731 0.149985)
(-3.43531 0.00556232 0.105837)
(-3.43544 0.00607389 0.103871)
(-3.43577 0.00935081 0.0921288)
(-3.43587 0.0100105 0.0902031)
(-3.43547 0.00748832 0.0979432)
(-3.43557 0.00809058 0.0959992)
(-3.43567 0.00871113 0.0940609)
(-3.43622 0.0128433 0.0825514)
(-3.43596 0.0106918 0.0882806)
(-3.43605 0.0113922 0.0863647)
(-3.43613 0.01211 0.0844551)
(-3.43544 0.0262991 0.127391)
(-3.43531 0.0242715 0.127512)
(-3.43587 0.0405146 0.126912)
(-3.43577 0.0384792 0.126879)
(-3.43567 0.036444 0.126868)
(-3.43557 0.0344088 0.126877)
(-3.43547 0.0323738 0.126905)
(-3.43613 0.0466299 0.127132)
(-3.43605 0.044592 0.12704)
(-3.43596 0.0425535 0.126966)
(-3.43622 0.0486671 0.127241)
(-3.43516 -0.0168819 0.144162)
(-3.43531 -0.0184383 0.145465)
(-3.43544 -0.0200076 0.146755)
(-3.43577 -0.0295606 0.154328)
(-3.43587 -0.0312262 0.155498)
(-3.43547 -0.0246362 0.150719)
(-3.43557 -0.0262661 0.151938)
(-3.43567 -0.0279074 0.153141)
(-3.43622 -0.0380155 0.160024)
(-3.43596 -0.0329074 0.156653)
(-3.43605 -0.0346001 0.157791)
(-3.43613 -0.0363032 0.158914)
(-3.43516 -0.0191139 0.11801)
(-3.43531 -0.0208338 0.116932)
(-3.43544 -0.0225452 0.115838)
(-3.43577 -0.0327001 0.109093)
(-3.43587 -0.0343277 0.107871)
(-3.43547 -0.0277458 0.112661)
(-3.43557 -0.0294086 0.111488)
(-3.43567 -0.0310602 0.110299)
(-3.43622 -0.0407295 0.102812)
(-3.43596 -0.0359456 0.106629)
(-3.43605 -0.0375512 0.10537)
(-3.43613 -0.0391456 0.104098)
(-3.41814 -0.0204602 0.185503)
(-3.41787 -0.0203965 0.184138)
(-3.43449 0.00348915 0.146177)
(-3.4327 0.00228473 0.146688)
(-3.43629 0.00463285 0.145568)
(-3.43109 0.00115957 0.14706)
(-3.4295 4.36559e-16 0.147345)
(-3.42274 -0.00518308 0.147561)
(-3.42106 -0.0064924 0.147355)
(-3.42442 -0.00387209 0.147663)
(-3.4261 -0.00256491 0.147661)
(-3.4278 -0.00127145 0.147554)
(-3.43534 0.00896339 0.143809)
(-3.43369 0.0092013 0.143992)
(-3.41776 -0.00878009 0.146776)
(-3.416 -0.00974007 0.146471)
(-3.41417 -0.0105568 0.146194)
(-3.41224 -0.0111528 0.146022)
(-3.41018 -0.0113849 0.146084)
(-3.41945 -0.00769198 0.14708)
(-3.43018 0.00893347 0.14482)
(-3.43193 0.00908899 0.144404)
(-3.42843 0.0087377 0.145237)
(-3.42668 0.00849023 0.145659)
(-3.4118 0.0023891 0.149339)
(-3.41345 0.00364418 0.148991)
(-3.41519 0.00471464 0.148582)
(-3.41701 0.00563617 0.148132)
(-3.41887 0.00642686 0.147653)
(-3.42078 0.00710002 0.147158)
(-3.42272 0.00766531 0.146655)
(-3.42469 0.00812621 0.146153)
(-3.40688 -0.00962239 0.147465)
(-3.40652 -0.0083138 0.148137)
(-3.40963 4.36559e-16 0.149671)
(-3.41065 0.00126247 0.149545)
(-3.40662 -0.00659571 0.148807)
(-3.40706 -0.00486561 0.149282)
(-3.40775 -0.00317628 0.14957)
(-3.40862 -0.00154868 0.149693)
(-3.40688 0.0183147 0.120713)
(-3.40653 0.0176645 0.119423)
(-3.41023 0.0189257 0.12287)
(-3.40662 0.0166548 0.117848)
(-3.40706 0.0155343 0.116447)
(-3.40775 0.0143372 0.11522)
(-3.40862 0.0130928 0.114164)
(-3.40963 0.0118267 0.113272)
(-3.41776 0.0172285 0.120775)
(-3.416 0.0178257 0.121586)
(-3.41417 0.0183239 0.12229)
(-3.41224 0.018705 0.122779)
(-3.42106 0.0157162 0.11896)
(-3.41945 0.016527 0.119889)
(-3.41065 0.0107313 0.112632)
(-3.41182 0.00968711 0.112131)
(-3.42274 0.0147799 0.118025)
(-3.42442 0.0137791 0.117172)
(-3.4261 0.0127202 0.116406)
(-3.4278 0.0116113 0.115732)
(-3.4295 0.0104599 0.115153)
(-3.41345 0.00847876 0.11168)
(-3.41519 0.00737269 0.111381)
(-3.41701 0.00636222 0.111204)
(-3.41887 0.00544128 0.111127)
(-3.42078 0.00460563 0.111132)
(-3.42272 0.00385263 0.111206)
(-3.42469 0.00318493 0.111341)
(-3.42668 0.0026 0.111527)
(-3.4327 0.00822505 0.114342)
(-3.43109 0.00935371 0.114703)
(-3.43018 0.00174818 0.111945)
(-3.43193 0.00137771 0.112191)
(-3.43369 0.00104498 0.112458)
(-3.42843 0.00215184 0.111723)
(-3.43449 0.00695025 0.114048)
(-3.43629 0.00566715 0.113868)
(-3.43534 0.0011296 0.112746)
(-3.42274 0.0155279 0.140045)
(-3.42106 0.0149282 0.141225)
(-3.42442 0.0160298 0.13883)
(-3.4261 0.0164316 0.137586)
(-3.4278 0.0167303 0.136323)
(-3.4295 0.0169245 0.135049)
(-3.4327 0.0170052 0.132673)
(-3.43109 0.0170109 0.133858)
(-3.41776 0.0136698 0.143224)
(-3.416 0.0130828 0.144042)
(-3.41417 0.0125673 0.144733)
(-3.41224 0.0122197 0.145247)
(-3.41023 0.0122019 0.145485)
(-3.41945 0.0142953 0.142283)
(-3.43449 0.0168913 0.13137)
(-3.43629 0.0166658 0.130094)
(-3.40688 0.0140645 0.144237)
(-3.40653 0.0150903 0.14322)
(-3.43534 0.0163308 0.125432)
(-3.43369 0.0165788 0.125262)
(-3.41182 0.0195598 0.13338)
(-3.41345 0.0196153 0.132092)
(-3.41519 0.0195577 0.130947)
(-3.417 0.0194138 0.129932)
(-3.41887 0.0192031 0.129032)
(-3.42078 0.0189401 0.128238)
(-3.42272 0.0186364 0.127546)
(-3.42469 0.0183018 0.126952)
(-3.42668 0.0179444 0.126453)
(-3.43018 0.0172833 0.125772)
(-3.43193 0.0169355 0.125496)
(-3.42843 0.0176196 0.126088)
(-3.40662 0.016276 0.141774)
(-3.40706 0.0172623 0.140275)
(-3.40775 0.0180587 0.138757)
(-3.40862 0.0186788 0.137248)
(-3.40963 0.019136 0.135768)
(-3.41065 0.0194063 0.134528)
(-3.40688 -0.0200115 0.125935)
(-3.40653 -0.0202436 0.12736)
(-3.41023 -0.0192379 0.12383)
(-3.40662 -0.0203524 0.129228)
(-3.40706 -0.0202694 0.13102)
(-3.40775 -0.0200217 0.132716)
(-3.40862 -0.019636 0.134302)
(-3.40963 -0.019136 0.135768)
(-3.41776 -0.0190962 0.126523)
(-3.416 -0.0191025 0.125515)
(-3.41417 -0.0190918 0.124653)
(-3.41224 -0.0191126 0.124033)
(-3.42106 -0.0189393 0.12888)
(-3.41945 -0.0190492 0.127652)
(-3.41065 -0.0186261 0.136929)
(-3.41182 -0.0180756 0.137948)
(-3.42274 -0.0187312 0.130186)
(-3.42442 -0.0184229 0.131465)
(-3.4261 -0.0180168 0.132707)
(-3.4278 -0.0175161 0.133904)
(-3.4295 -0.0169245 0.135049)
(-3.41345 -0.0173631 0.139023)
(-3.41519 -0.0166439 0.139915)
(-3.41701 -0.0159305 0.140652)
(-3.41887 -0.015231 0.141256)
(-3.42078 -0.0145521 0.141744)
(-3.42272 -0.013899 0.142126)
(-3.42469 -0.0132795 0.142409)
(-3.42668 -0.0126971 0.142603)
(-3.4327 -0.0155931 0.137019)
(-3.43109 -0.0162942 0.136064)
(-3.43018 -0.0117621 0.142765)
(-3.43193 -0.0113182 0.142784)
(-3.43369 -0.0108921 0.142764)
(-3.42843 -0.0122194 0.142708)
(-3.43449 -0.0147349 0.138006)
(-3.43629 -0.0138025 0.138906)
(-3.43534 -0.0107911 0.142481)
(-3.40688 -0.00274539 0.109401)
(-3.40653 -0.004173 0.109621)
(-3.41023 -0.000505144 0.109486)
(-3.40662 -0.00598276 0.110094)
(-3.40706 -0.00766158 0.110727)
(-3.40775 -0.00919783 0.111486)
(-3.40862 -0.010587 0.112343)
(-3.40963 -0.0118267 0.113272)
(-3.41776 -0.00302203 0.110453)
(-3.416 -0.00206591 0.110136)
(-3.41417 -0.00124257 0.109879)
(-3.41224 -0.000659387 0.109668)
(-3.42106 -0.00521507 0.111331)
(-3.41945 -0.00408106 0.110847)
(-3.41065 -0.012774 0.114116)
(-3.41182 -0.0135728 0.114954)
(-3.42274 -0.00639345 0.111932)
(-3.42442 -0.00751388 0.11262)
(-3.4261 -0.00857007 0.113391)
(-3.4278 -0.00955407 0.114237)
(-3.4295 -0.0104599 0.115153)
(-3.41345 -0.0143752 0.115964)
(-3.41519 -0.0150011 0.116924)
(-3.41701 -0.0154817 0.11783)
(-3.41887 -0.0158402 0.118682)
(-3.42078 -0.0160937 0.119478)
(-3.42272 -0.0162554 0.120217)
(-3.42469 -0.0163334 0.120894)
(-3.42668 -0.0163375 0.121508)
(-3.4327 -0.0119218 0.117028)
(-3.43109 -0.0112299 0.116066)
(-3.43018 -0.0162028 0.122447)
(-3.43193 -0.016084 0.122875)
(-3.43369 -0.015933 0.123274)
(-3.42843 -0.0162897 0.121995)
(-3.43449 -0.0125958 0.118149)
(-3.43629 -0.0131633 0.119314)
(-3.43534 -0.0156327 0.123283)
(-3.4367 -0.0840297 0.176845)
(-3.43642 -0.0859085 0.176092)
(-3.42867 0.0628794 0.0614157)
(-3.42816 0.0629299 0.0633336)
(-3.428 0.0627426 0.0633062)
(-3.42851 0.0626965 0.0613978)
(-3.42917 0.0627204 0.0595026)
(-3.42901 0.062546 0.0594945)
(-3.42951 0.0622761 0.0576038)
(-3.42966 0.0624406 0.0576026)
(-3.43015 0.0620304 0.0557261)
(-3.43001 0.0618748 0.0557361)
(-3.43064 0.0614917 0.0539069)
(-3.4305 0.0613435 0.0539286)
(-3.43113 0.0608186 0.0521332)
(-3.43098 0.0606762 0.0521663)
(-3.43162 0.0600081 0.0504178)
(-3.43147 0.0598705 0.0504622)
(-3.43211 0.0590551 0.0487776)
(-3.43195 0.058922 0.0488332)
(-3.43259 0.057954 0.0472324)
(-3.43243 0.0578255 0.0472991)
(-3.43308 0.0567004 0.045808)
(-3.43291 0.0565771 0.0458853)
(-3.43338 0.0551753 0.0446208)
(-3.43356 0.0552923 0.0445335)
(-3.43402 0.0537356 0.0434415)
(-3.43641 0.0128064 0.0825415)
(-3.43634 0.0120762 0.084446)
(-3.4343 0.0518743 0.0426323)
(-3.43449 0.0519713 0.0425252)
(-3.43474 0.0500164 0.0419558)
(-3.43494 0.0500991 0.0418399)
(-3.43515 0.0480852 0.0415058)
(-3.43536 0.0481525 0.0413829)
(-3.43554 0.0461092 0.0412821)
(-3.43575 0.04616 0.0411543)
(-3.43589 0.0441146 0.0412881)
(-3.4361 0.0441482 0.0411578)
(-3.43621 0.0421289 0.0415311)
(-3.43649 0.0401834 0.042022)
(-3.4367 0.0401823 0.0418964)
(-3.43642 0.0421449 0.0414013)
(-3.43673 0.0382088 0.0428142)
(-3.43693 0.0381918 0.0426966)
(-3.43692 0.0363438 0.0438498)
(-3.43706 0.0345973 0.0450815)
(-3.43726 0.0345532 0.0449871)
(-3.43712 0.0363126 0.0437431)
(-3.43715 0.033213 0.0462459)
(-3.43734 0.0331646 0.0461571)
(-3.43721 0.0319104 0.0475027)
(-3.4374 0.0318576 0.0474189)
(-3.43725 0.0306835 0.048835)
(-3.43744 0.0306265 0.0487563)
(-3.43726 0.0295251 0.0502268)
(-3.43746 0.0294641 0.0501534)
(-3.43727 0.0284251 0.0516656)
(-3.43726 0.0273734 0.0531401)
(-3.43746 0.0273061 0.053079)
(-3.43747 0.0283605 0.0515981)
(-3.43724 0.0262163 0.0548624)
(-3.43744 0.0261497 0.0548053)
(-3.43721 0.0251059 0.0566147)
(-3.4374 0.025041 0.0565622)
(-3.43717 0.0240389 0.0583938)
(-3.43736 0.0239764 0.0583462)
(-3.4373 0.0229521 0.0601534)
(-3.43712 0.0230116 0.0601961)
(-3.41871 -0.0169312 0.0710688)
(-3.42157 -0.023537 0.0625117)
(-3.42109 -0.0223184 0.0638492)
(-3.42093 -0.022483 0.0639735)
(-3.42142 -0.0236893 0.0626325)
(-3.42062 -0.0211359 0.0652199)
(-3.42044 -0.0213142 0.0653479)
(-3.42014 -0.0199894 0.0666221)
(-3.41995 -0.0201839 0.0667547)
(-3.41967 -0.018879 0.0680544)
(-3.41946 -0.0190933 0.0681929)
(-3.41921 -0.0178046 0.0695153)
(-3.42209 -0.0248633 0.0611372)
(-3.42195 -0.0250022 0.061255)
(-3.4226 -0.0262313 0.0598048)
(-3.42247 -0.026358 0.0599195)
(-3.42312 -0.0276418 0.0585188)
(-3.42299 -0.0277577 0.0586307)
(-3.42364 -0.0290953 0.0572831)
(-3.42352 -0.0292026 0.0573934)
(-3.42404 -0.0306939 0.0562124)
(-3.42416 -0.0305925 0.0561018)
(-3.42469 -0.0321342 0.054979)
(-3.42457 -0.0322327 0.0550924)
(-3.42519 -0.0336528 0.0539618)
(-3.42506 -0.0337489 0.0540823)
(-3.42569 -0.0352103 0.0530049)
(-3.42556 -0.0353058 0.0531347)
(-3.42619 -0.0368053 0.0521115)
(-3.42605 -0.0369008 0.0522517)
(-3.42669 -0.0384363 0.0512845)
(-3.42654 -0.0385314 0.0514351)
(-3.42719 -0.0401019 0.0505274)
(-3.42703 -0.0401954 0.0506872)
(-3.42752 -0.0418901 0.0500105)
(-3.42768 -0.0418002 0.0498439)
(-3.42816 -0.0435291 0.0492381)
(-3.428 -0.0436131 0.0494077)
(-3.42867 -0.0453688 0.0486935)
(-3.42851 -0.0454423 0.0488619)
(-3.42917 -0.0472374 0.0482535)
(-3.42901 -0.047299 0.0484168)
(-3.42951 -0.0491805 0.0480894)
(-3.42966 -0.0491309 0.0479325)
(-3.43015 -0.0510422 0.0477428)
(-3.43001 -0.0510808 0.0478938)
(-3.43064 -0.0529388 0.0476929)
(-3.4305 -0.052964 0.0478405)
(-3.43113 -0.0548338 0.047785)
(-3.43098 -0.0548463 0.0479306)
(-3.43162 -0.0567157 0.0480257)
(-3.43147 -0.056716 0.0481703)
(-3.43211 -0.0585701 0.0484252)
(-3.43195 -0.0585583 0.048569)
(-3.43259 -0.0603799 0.0489949)
(-3.43243 -0.0603562 0.0491378)
(-3.43308 -0.062122 0.049747)
(-3.43291 -0.0620866 0.0498881)
(-3.43338 -0.0637224 0.0508306)
(-3.43356 -0.0637692 0.0506923)
(-3.43402 -0.0652888 0.0518355)
(-3.43641 -0.0407504 0.102844)
(-3.43634 -0.0391646 0.104127)
(-3.4343 -0.0666336 0.0533555)
(-3.43449 -0.0667055 0.0532303)
(-3.43474 -0.0678511 0.0549135)
(-3.43494 -0.0679358 0.054799)
(-3.43515 -0.0688759 0.0566111)
(-3.43536 -0.0689719 0.0565091)
(-3.43554 -0.0696992 0.0584213)
(-3.43575 -0.0698051 0.0583335)
(-3.43589 -0.0703099 0.0603201)
(-3.4361 -0.0704234 0.0602479)
(-3.43621 -0.0706924 0.0622837)
(-3.43649 -0.0708267 0.0642857)
(-3.4367 -0.0709466 0.0642479)
(-3.43642 -0.0708109 0.0622284)
(-3.43673 -0.0706834 0.0664084)
(-3.43693 -0.0708005 0.0663883)
(-3.43692 -0.0702749 0.0685021)
(-3.43706 -0.0696431 0.0705438)
(-3.43726 -0.0697466 0.0705565)
(-3.43712 -0.070386 0.0684989)
(-3.43715 -0.0689635 0.0722202)
(-3.43734 -0.069063 0.0722388)
(-3.43721 -0.0681708 0.0738474)
(-3.4374 -0.0682667 0.0738717)
(-3.43725 -0.0672828 0.0754259)
(-3.43744 -0.0673753 0.0754559)
(-3.43726 -0.0663171 0.0769577)
(-3.43746 -0.0664057 0.0769931)
(-3.43727 -0.0652886 0.0784485)
(-3.43726 -0.0642112 0.0799044)
(-3.43746 -0.0642902 0.0799496)
(-3.43747 -0.0653728 0.0784891)
(-3.43724 -0.0629309 0.0815371)
(-3.43744 -0.0630057 0.0815828)
(-3.43721 -0.0616074 0.0831346)
(-3.4374 -0.0616774 0.0831801)
(-3.43717 -0.0602452 0.0846992)
(-3.43736 -0.0603098 0.0847439)
(-3.4373 -0.0589075 0.0862766)
(-3.43712 -0.0588486 0.0862331)
(-3.43517 0.00891563 0.150021)
(-3.43531 0.00966864 0.151907)
(-3.43543 0.0104046 0.153801)
(-3.43563 0.0118241 0.15761)
(-3.43536 0.0118465 0.157599)
(-3.43587 0.0150269 0.16726)
(-3.43577 0.0144289 0.165315)
(-3.43601 0.0144428 0.165316)
(-3.4361 0.0150472 0.167259)
(-3.43567 0.013811 0.163377)
(-3.43592 0.0138176 0.163379)
(-3.43557 0.013174 0.161445)
(-3.43583 0.0131722 0.16145)
(-3.43573 0.0125074 0.159527)
(-3.43622 0.0172324 0.175113)
(-3.43641 0.0172704 0.175108)
(-3.43613 0.0167068 0.173143)
(-3.43634 0.0167416 0.173138)
(-3.43605 0.0161651 0.171176)
(-3.43626 0.0161958 0.171173)
(-3.43618 0.0156316 0.169213)
(-3.43596 0.0156057 0.169215)
(-3.41849 -0.0205389 0.186802)
(-3.41921 -0.0208833 0.188584)
(-3.41898 -0.0206041 0.188607)
(-3.41967 -0.0208727 0.190398)
(-3.41946 -0.020618 0.190412)
(-3.42014 -0.0208163 0.192209)
(-3.41995 -0.020581 0.192216)
(-3.42062 -0.020713 0.194018)
(-3.42044 -0.0204935 0.194019)
(-3.42093 -0.0203558 0.195818)
(-3.42109 -0.020562 0.195821)
(-3.42157 -0.0203623 0.19762)
(-3.42142 -0.0201681 0.197612)
(-3.42209 -0.0200972 0.199511)
(-3.42195 -0.0199156 0.199498)
(-3.4226 -0.0197736 0.201393)
(-3.42247 -0.0196037 0.201375)
(-3.42312 -0.0193884 0.203263)
(-3.42299 -0.0192289 0.20324)
(-3.42364 -0.0189389 0.205117)
(-3.42352 -0.0187871 0.205091)
(-3.42404 -0.0182749 0.206923)
(-3.42416 -0.0184219 0.206953)
(-3.42469 -0.0178346 0.208767)
(-3.42457 -0.0176883 0.208733)
(-3.42519 -0.017204 0.210483)
(-3.42506 -0.0170554 0.210442)
(-3.42569 -0.0165063 0.212172)
(-3.42556 -0.0163528 0.212123)
(-3.42619 -0.0157411 0.213833)
(-3.42605 -0.0155815 0.213775)
(-3.42669 -0.0149077 0.21546)
(-3.42654 -0.0147422 0.215395)
(-3.42719 -0.0140052 0.217052)
(-3.42703 -0.0138357 0.216978)
(-3.42752 -0.0128623 0.218521)
(-3.42768 -0.013033 0.218603)
(-3.42816 -0.0119904 0.220109)
(-3.428 -0.0118227 0.220022)
(-3.42867 -0.0108221 0.221631)
(-3.42851 -0.0106637 0.221538)
(-3.42917 -0.00956906 0.223086)
(-3.42901 -0.00942318 0.22299)
(-3.42951 -0.00809347 0.224361)
(-3.42966 -0.00822587 0.224458)
(-3.43015 -0.00679106 0.225735)
(-3.43001 -0.00667102 0.225636)
(-3.43064 -0.00528595 0.22689)
(-3.4305 -0.00517884 0.226786)
(-3.43113 -0.0036988 0.22793)
(-3.43098 -0.00360307 0.227819)
(-3.43162 -0.00203482 0.228841)
(-3.43147 -0.00194959 0.228724)
(-3.43211 -0.000299785 0.229608)
(-3.43195 -0.000224735 0.229485)
(-3.43259 0.00149924 0.230211)
(-3.43243 0.00156411 0.230081)
(-3.43308 0.00335067 0.230626)
(-3.43291 0.00340505 0.230491)
(-3.43338 0.00528242 0.23069)
(-3.43356 0.00523902 0.23083)
(-3.43402 0.00714032 0.230798)
(-3.43384 0.00717221 0.230656)
(-3.4343 0.00912171 0.230359)
(-3.43449 0.00910624 0.230502)
(-3.43474 0.0110225 0.229814)
(-3.43494 0.0110237 0.229956)
(-3.43515 0.0128493 0.229043)
(-3.43536 0.0128671 0.229182)
(-3.43554 0.0145795 0.228062)
(-3.43575 0.0146135 0.228196)
(-3.43589 0.0161896 0.226885)
(-3.4361 0.016239 0.22701)
(-3.43621 0.0176533 0.225522)
(-3.43649 0.0189386 0.223981)
(-3.4367 0.0190134 0.224082)
(-3.43642 0.0177166 0.225636)
(-3.43673 0.0200704 0.222179)
(-3.43693 0.0201533 0.222264)
(-3.43692 0.0209705 0.220245)
(-3.43706 0.0216595 0.218222)
(-3.43726 0.0217507 0.218273)
(-3.43712 0.0210586 0.220313)
(-3.43715 0.022095 0.216467)
(-3.43734 0.0221864 0.21651)
(-3.43721 0.0224101 0.214684)
(-3.4374 0.0225021 0.214721)
(-3.43725 0.0226196 0.212885)
(-3.43744 0.022712 0.212915)
(-3.43726 0.0227387 0.211078)
(-3.43746 0.0228312 0.211102)
(-3.43727 0.0227829 0.209268)
(-3.43726 0.022767 0.207457)
(-3.43746 0.0228574 0.207466)
(-3.43747 0.0228748 0.209284)
(-3.43724 0.0226909 0.205383)
(-3.43744 0.0227783 0.20539)
(-3.43721 0.0225591 0.203313)
(-3.4374 0.0226425 0.203317)
(-3.43717 0.0223767 0.201246)
(-3.43736 0.0224553 0.201248)
(-3.4373 0.0222217 0.199184)
(-3.43712 0.0221485 0.199184)
(-3.41871 0.0503869 0.0953758)
(-3.42157 0.0564839 0.086449)
(-3.42109 0.0555884 0.0880213)
(-3.42093 0.0554193 0.0879031)
(-3.42142 0.0563219 0.0863415)
(-3.42062 0.0546502 0.0895695)
(-3.42044 0.0544734 0.0894395)
(-3.42014 0.0536709 0.0910931)
(-3.41995 0.0534847 0.0909492)
(-3.41967 0.0526518 0.0925918)
(-3.41946 0.0524539 0.0924308)
(-3.41921 0.0515945 0.0940651)
(-3.42209 0.0573813 0.0847628)
(-3.42195 0.0572263 0.0846671)
(-3.4226 0.0582257 0.0830501)
(-3.42247 0.0580775 0.082965)
(-3.42312 0.0590129 0.0813113)
(-3.42299 0.0588706 0.0812356)
(-3.42364 0.059739 0.079547)
(-3.42352 0.0596009 0.0794791)
(-3.42404 0.0602633 0.0776958)
(-3.42416 0.0603998 0.077758)
(-3.42469 0.0609912 0.0759448)
(-3.42457 0.060853 0.0758862)
(-3.43471 0.0042335 0.109688)
(-3.43499 0.00459577 0.109766)
(-3.42519 0.0614894 0.0741862)
(-3.42506 0.0613451 0.0741321)
(-3.42569 0.0619181 0.0724093)
(-3.42556 0.0617652 0.0723586)
(-3.42619 0.0622749 0.0706163)
(-3.42605 0.0621121 0.0705688)
(-3.42669 0.0625574 0.0688095)
(-3.42654 0.0623849 0.0687656)
(-3.42719 0.0627628 0.0669915)
(-3.42703 0.0625819 0.066952)
(-3.42752 0.0627018 0.0651311)
(-3.42768 0.062888 0.0651652)
(-3.43525 0.00633599 0.101845)
(-3.43514 0.00578553 0.103801)
(-3.43502 0.00525162 0.10576)
(-3.43487 0.00473428 0.107723)
(-3.43601 0.00933809 0.0921256)
(-3.4361 0.00999129 0.0901983)
(-3.43592 0.00870576 0.0940597)
(-3.43583 0.00809367 0.0960001)
(-3.43573 0.00750119 0.0979466)
(-3.43626 0.0113626 0.0863568)
(-3.43618 0.010667 0.0882741)
(-3.43499 0.0202362 0.127807)
(-3.43471 0.0201984 0.127438)
(-3.43525 0.0283066 0.127015)
(-3.43514 0.0262768 0.127095)
(-3.43502 0.0242484 0.127193)
(-3.43487 0.0222221 0.127308)
(-3.41871 0.0480721 0.16691)
(-3.43601 0.0384783 0.126866)
(-3.4361 0.0405132 0.126892)
(-3.43592 0.0364435 0.126863)
(-3.43583 0.0344089 0.12688)
(-3.43573 0.0323746 0.126918)
(-3.43641 0.0486651 0.127203)
(-3.43634 0.0466282 0.127097)
(-3.43626 0.0445904 0.127009)
(-3.43618 0.042552 0.12694)
(-3.42157 0.058446 0.16995)
(-3.42109 0.0566739 0.169585)
(-3.42093 0.056734 0.169387)
(-3.42142 0.0584981 0.169763)
(-3.42062 0.0549116 0.169171)
(-3.42044 0.0549806 0.168962)
(-3.42014 0.0531599 0.16871)
(-3.41995 0.0532392 0.168489)
(-3.41967 0.0514196 0.168204)
(-3.41946 0.0515116 0.167966)
(-3.41921 0.0496917 0.167654)
(-3.42209 0.0603269 0.170283)
(-3.42195 0.06037 0.170106)
(-3.4226 0.0622168 0.170557)
(-3.42247 0.0622519 0.170389)
(-3.42312 0.0641138 0.170768)
(-3.42299 0.0641418 0.170609)
(-3.42364 0.066016 0.170913)
(-3.42352 0.066038 0.170761)
(-3.42404 0.0679386 0.17084)
(-3.42416 0.0679216 0.170989)
(-3.42469 0.0698289 0.170991)
(-3.42457 0.0698419 0.170842)
(-3.42519 0.0716553 0.170922)
(-3.42506 0.0716623 0.170768)
(-3.42569 0.0734778 0.17078)
(-3.42556 0.0734787 0.170619)
(-3.42619 0.0752933 0.170565)
(-3.42605 0.0752882 0.170396)
(-3.42669 0.0770989 0.170276)
(-3.42654 0.0770874 0.170098)
(-3.42719 0.0788915 0.169909)
(-3.42703 0.0788732 0.169725)
(-3.42752 0.0806419 0.169276)
(-3.42768 0.0806671 0.169464)
(-3.42816 0.0824219 0.168938)
(-3.428 0.0823901 0.168751)
(-3.42867 0.0842304 0.168297)
(-3.42851 0.0841909 0.168118)
(-3.42917 0.0860007 0.167555)
(-3.42901 0.0859546 0.167386)
(-3.42951 0.0876693 0.166545)
(-3.42966 0.0877213 0.166702)
(-3.43015 0.0893791 0.165732)
(-3.43001 0.0893215 0.165587)
(-3.43064 0.0909428 0.164657)
(-3.4305 0.0908764 0.164523)
(-3.43113 0.0924217 0.163469)
(-3.43098 0.0923462 0.163344)
(-3.43162 0.0938027 0.162168)
(-3.43147 0.093718 0.162051)
(-3.43211 0.0950682 0.160755)
(-3.43195 0.0949741 0.160645)
(-3.43259 0.0961974 0.15923)
(-3.43243 0.0960943 0.159128)
(-3.43308 0.0971648 0.157598)
(-3.43291 0.0970532 0.157504)
(-3.43338 0.0978226 0.15578)
(-3.43356 0.0979418 0.155865)
(-3.43402 0.0984992 0.154047)
(-3.4343 0.0986937 0.152026)
(-3.43449 0.0988255 0.152085)
(-3.43474 0.098763 0.15005)
(-3.43494 0.0988987 0.150093)
(-3.43515 0.0985942 0.148075)
(-3.43536 0.0987318 0.148101)
(-3.43554 0.0981963 0.146126)
(-3.43575 0.0983335 0.146135)
(-3.43589 0.0975742 0.144231)
(-3.4361 0.0977085 0.144223)
(-3.43621 0.0967295 0.142418)
(-3.43649 0.0956614 0.140719)
(-3.4367 0.0957806 0.140679)
(-3.43642 0.0968579 0.142393)
(-3.43673 0.0942978 0.139086)
(-3.43693 0.0944044 0.139033)
(-3.43692 0.0927366 0.137632)
(-3.43706 0.0910254 0.136352)
(-3.43726 0.0911016 0.136281)
(-3.43712 0.0928285 0.13757)
(-3.43715 0.0894903 0.135395)
(-3.43734 0.0895598 0.135322)
(-3.43721 0.0878925 0.134545)
(-3.4374 0.0879558 0.134468)
(-3.43725 0.0862463 0.133789)
(-3.43744 0.0863035 0.133711)
(-3.43726 0.0845646 0.133118)
(-3.43746 0.0846155 0.133037)
(-3.43727 0.0828563 0.132516)
(-3.43726 0.081129 0.131972)
(-3.43746 0.0811663 0.131889)
(-3.43747 0.0829005 0.132434)
(-3.43724 0.0791334 0.131403)
(-3.43744 0.0791671 0.131322)
(-3.43721 0.0771237 0.130889)
(-3.4374 0.0771536 0.130811)
(-3.43717 0.075102 0.130424)
(-3.43736 0.075128 0.13035)
(-3.4373 0.0730926 0.129934)
(-3.43712 0.0730705 0.130004)
(-3.41871 -0.060851 0.127581)
(-3.42157 -0.0710305 0.131219)
(-3.42109 -0.0693819 0.130473)
(-3.42093 -0.0693146 0.130668)
(-3.42142 -0.0709627 0.131401)
(-3.42062 -0.0677129 0.129772)
(-3.42044 -0.0676463 0.129981)
(-3.42014 -0.066025 0.129115)
(-3.41995 -0.065959 0.129341)
(-3.41967 -0.0643197 0.128502)
(-3.41946 -0.0642542 0.128748)
(-3.41921 -0.0625983 0.127931)
(-3.42209 -0.0727477 0.132056)
(-3.42195 -0.0726785 0.132224)
(-3.4226 -0.0744375 0.132945)
(-3.42247 -0.0743676 0.133101)
(-3.42312 -0.0760965 0.133889)
(-3.42299 -0.0760259 0.134034)
(-3.42364 -0.0777209 0.13489)
(-3.42352 -0.0776491 0.135026)
(-3.42404 -0.0792331 0.136079)
(-3.42416 -0.079307 0.135948)
(-3.42469 -0.0808512 0.137068)
(-3.42457 -0.0807739 0.137196)
(-3.43471 -0.0150998 0.143131)
(-3.42519 -0.082288 0.138198)
(-3.42506 -0.0822031 0.138326)
(-3.42569 -0.0836793 0.139383)
(-3.42556 -0.0835853 0.139514)
(-3.42619 -0.0850218 0.140624)
(-3.42605 -0.0849181 0.140758)
(-3.42669 -0.0863124 0.14192)
(-3.42654 -0.0861986 0.142057)
(-3.42719 -0.0875472 0.14327)
(-3.42703 -0.0874241 0.143408)
(-3.42752 -0.0885913 0.144811)
(-3.42768 -0.0887219 0.144674)
(-3.42816 -0.0898324 0.146131)
(-3.428 -0.089697 0.146263)
(-3.43525 -0.0214103 0.148239)
(-3.43514 -0.0198156 0.146981)
(-3.43502 -0.018232 0.14571)
(-3.43487 -0.01666 0.144426)
(-3.42867 -0.0909188 0.147712)
(-3.42851 -0.0907814 0.147834)
(-3.42917 -0.0919148 0.149353)
(-3.42901 -0.0917784 0.149462)
(-3.42951 -0.0926713 0.151151)
(-3.42966 -0.0928051 0.151055)
(-3.43015 -0.0935762 0.152814)
(-3.43001 -0.0934445 0.152898)
(-3.43601 -0.0295522 0.154338)
(-3.4361 -0.0312135 0.155513)
(-3.43592 -0.0279038 0.153145)
(-3.43583 -0.026268 0.151935)
(-3.43573 -0.0246446 0.150709)
(-3.43064 -0.0942097 0.154603)
(-3.4305 -0.0940771 0.154672)
(-3.43113 -0.0947077 0.156433)
(-3.43098 -0.0945731 0.15649)
(-3.43162 -0.0950603 0.158297)
(-3.43147 -0.0949229 0.158342)
(-3.43211 -0.0952535 0.160185)
(-3.43195 -0.095113 0.160218)
(-3.43259 -0.0952709 0.162082)
(-3.43243 -0.0951277 0.162103)
(-3.43308 -0.0950939 0.163971)
(-3.43291 -0.0949487 0.163981)
(-3.43338 -0.0945579 0.165828)
(-3.43356 -0.0947039 0.16583)
(-3.43402 -0.0940863 0.167628)
(-3.43641 -0.0379915 0.160053)
(-3.43634 -0.0362813 0.158942)
(-3.43626 -0.0345808 0.157815)
(-3.43618 -0.0328912 0.156673)
(-3.4343 -0.0930562 0.169377)
(-3.43449 -0.0931975 0.169407)
(-3.43474 -0.0919507 0.171016)
(-3.43494 -0.0920857 0.171061)
(-3.43515 -0.0906529 0.172515)
(-3.43536 -0.0907795 0.172575)
(-3.43554 -0.0891856 0.173858)
(-3.43575 -0.0893019 0.173931)
(-3.43589 -0.0875685 0.175025)
(-3.4361 -0.0876723 0.175111)
(-3.43621 -0.0858192 0.175996)
(-3.43649 -0.0839567 0.176742)
(-3.43673 -0.0818936 0.177262)
(-3.43693 -0.0819489 0.177367)
(-3.43692 -0.0797761 0.177521)
(-3.43706 -0.0776391 0.177551)
(-3.43726 -0.077659 0.177653)
(-3.43712 -0.0798136 0.177625)
(-3.43715 -0.0758348 0.177422)
(-3.43734 -0.0758478 0.177523)
(-3.43721 -0.0740422 0.177171)
(-3.4374 -0.0740488 0.17727)
(-3.43725 -0.0722666 0.176814)
(-3.43744 -0.0722667 0.176912)
(-3.43726 -0.0705113 0.176369)
(-3.43746 -0.0705051 0.176465)
(-3.43727 -0.0687757 0.175852)
(-3.43726 -0.0670582 0.175277)
(-3.43746 -0.0670396 0.175366)
(-3.43747 -0.0687631 0.175945)
(-3.43724 -0.0651097 0.174564)
(-3.43744 -0.0650893 0.174649)
(-3.43721 -0.0631814 0.173799)
(-3.4374 -0.0631597 0.17388)
(-3.43717 -0.0612724 0.172987)
(-3.43736 -0.0612499 0.173062)
(-3.4373 -0.0593589 0.172202)
(-3.43712 -0.059382 0.172133)
(-3.43471 -0.017582 0.119386)
(-3.43525 -0.0243907 0.114963)
(-3.43514 -0.0227011 0.116091)
(-3.43502 -0.0210027 0.117204)
(-3.43487 -0.0192962 0.118302)
(-3.43601 -0.0327071 0.109104)
(-3.4361 -0.0343382 0.107887)
(-3.43592 -0.031063 0.110303)