/*--------------------------------*- C++ -*----------------------------------*\
| =========                 |                                                 |
| \\      /  F ield         | OpenFOAM: The Open Source CFD Toolbox           |
|  \\    /   O peration     | Version:  2406                                  |
|   \\  /    A nd           | Website:  www.openfoam.com                      |
|    \\/     M anipulation  |                                                 |
\*---------------------------------------------------------------------------*/
FoamFile
{
    version     2.0;
    format      ascii;
    arch        "LSB;label=32;scalar=64";
    class       extendedFeatureEdgeMesh;
    location    "constant/extendedFeatureEdgeMesh";
    object      HUB.extendedFeatureEdgeMesh;
}
// * * * * * * * * * * * * * * * * * * * * * * * * * * * * * * * * * * * * * //

// points

66
(
(-3.39743 0.0207 0.12955)
(-3.39743 0.0206069 0.131512)
(-3.39743 0.0203278 0.133458)
(-3.39743 0.0198643 0.135372)
(-3.39743 0.0192196 0.137237)
(-3.39743 0.0183996 0.139034)
(-3.39743 0.0174157 0.140739)
(-3.39743 0.016273 0.142344)
(-3.39743 0.0149814 0.143835)
(-3.39743 0.0135552 0.145194)
(-3.39743 0.0120055 0.146413)
(-3.39743 0.0103453 0.147479)
(-3.39743 0.00859281 0.148382)
(-3.39743 0.0067665 0.149113)
(-3.39743 0.00487669 0.149667)
(-3.39743 0.00293691 0.150041)
(-3.39743 0.000972869 0.150227)
(-3.39743 -0.000972869 0.150227)
(-3.39743 -0.00293691 0.150041)
(-3.39743 -0.00487669 0.149667)
(-3.39743 -0.0067665 0.149113)
(-3.39743 -0.00859281 0.148382)
(-3.39743 -0.0103453 0.147479)
(-3.39743 -0.0120055 0.146413)
(-3.39743 -0.0135552 0.145194)
(-3.39743 -0.0149814 0.143835)
(-3.39743 -0.016273 0.142344)
(-3.39743 -0.0174157 0.140739)
(-3.39743 -0.0183996 0.139034)
(-3.39743 -0.0192196 0.137237)
(-3.39743 -0.0198643 0.135372)
(-3.39743 -0.0203278 0.133458)
(-3.39743 -0.0206069 0.131512)
(-3.39743 -0.0207 0.12955)
(-3.39743 -0.0206069 0.127588)
(-3.39743 -0.0203278 0.125642)
(-3.39743 -0.0198643 0.123728)
(-3.39743 -0.0192196 0.121863)
(-3.39743 -0.0183996 0.120066)
(-3.39743 -0.0174157 0.118361)
(-3.39743 -0.016273 0.116756)
(-3.39743 -0.0149814 0.115265)
(-3.39743 -0.0135552 0.113906)
(-3.39743 -0.0120055 0.112687)
(-3.39743 -0.0103453 0.111621)
(-3.39743 -0.00859281 0.110718)
(-3.39743 -0.0067665 0.109987)
(-3.39743 -0.00487669 0.109433)
(-3.39743 -0.00293691 0.109059)
(-3.39743 -0.000972869 0.108873)
(-3.39743 0.000972869 0.108873)
(-3.39743 0.00293691 0.109059)
(-3.39743 0.00487669 0.109433)
(-3.39743 0.0067665 0.109987)
(-3.39743 0.00859281 0.110718)
(-3.39743 0.0103453 0.111621)
(-3.39743 0.0120055 0.112687)
(-3.39743 0.0135552 0.113906)
(-3.39743 0.0149814 0.115265)
(-3.39743 0.016273 0.116756)
(-3.39743 0.0174157 0.118361)
(-3.39743 0.0183996 0.120066)
(-3.39743 0.0192196 0.121863)
(-3.39743 0.0198643 0.123728)
(-3.39743 0.0203278 0.125642)
(-3.39743 0.0206069 0.127588)
)

// edges

66
(
(0 1)
(1 2)
(2 3)
(3 4)
(4 5)
(5 6)
(6 7)
(7 8)
(8 9)
(9 10)
(10 11)
(11 12)
(12 13)
(13 14)
(14 15)
(15 16)
(16 17)
(17 18)
(18 19)
(19 20)
(20 21)
(21 22)
(22 23)
(23 24)
(24 25)
(25 26)
(26 27)
(27 28)
(28 29)
(29 30)
(30 31)
(31 32)
(32 33)
(33 34)
(34 35)
(35 36)
(36 37)
(37 38)
(38 39)
(39 40)
(40 41)
(41 42)
(42 43)
(43 44)
(44 45)
(45 46)
(46 47)
(47 48)
(48 49)
(49 50)
(50 51)
(51 52)
(52 53)
(53 54)
(54 55)
(55 56)
(56 57)
(57 58)
(58 59)
(59 60)
(60 61)
(61 62)
(62 63)
(63 64)
(64 65)
(65 0)
)

// concaveStart mixedStart nonFeatureStart
0 0 0
// internalStart flatStart openStart multipleStart
66 66 66 66
// normals

132
(
(1 0 0)
(-0.057721114 0.99721069 0.047319223)
(1 0 0)
(-0.057317632 0.98824365 0.14173628)
(1 0 0)
(-0.056774209 0.97034056 0.23498059)
(1 0 0)
(-0.056631945 0.94360655 0.32618935)
(1 0 0)
(-0.056846269 0.90828754 0.41446621)
(1 0 0)
(-0.057105771 0.86471804 0.49900064)
(1 0 0)
(-0.057837824 0.8132639 0.57901349)
(1 0 0)
(-0.057862168 0.75457325 0.65365983)
(1 0 0)
(-0.057614061 0.6886994 0.72275429)
(1 0 0)
(-0.057854412 0.61721821 0.78466206)
(1 0 0)
(-0.057379964 0.53941134 0.84008508)
(1 0 0)
(-0.056704666 0.45730063 0.88750252)
(1 0 0)
(-0.056587288 0.37100383 0.92690562)
(1 0 0)
(-0.055978677 0.28087149 0.95811147)
(1 0 0)
(-0.055664527 0.18902509 0.98039328)
(1 0 0)
(-0.05514312 0.094137415 0.99403088)
(1 0 0)
(-0.055702854 0 0.99844739)
(1 0 0)
(-0.055818917 -0.094133875 0.99399349)
(1 0 0)
(-0.055370763 -0.18902818 0.98040932)
(1 0 0)
(-0.055895255 -0.28087281 0.95811596)
(1 0 0)
(-0.05648056 -0.37100608 0.92691123)
(1 0 0)
(-0.056784786 -0.45729854 0.88749847)
(1 0 0)
(-0.057711122 -0.53940102 0.84006902)
(1 0 0)
(-0.058440133 -0.61719711 0.78463525)
(1 0 0)
(-0.059374787 -0.68862823 0.7226796)
(1 0 0)
(-0.059179389 -0.75451489 0.65360927)
(1 0 0)
(-0.059209673 -0.81319838 0.57896685)
(1 0 0)
(-0.059280562 -0.86460824 0.49893727)
(1 0 0)
(-0.058628267 -0.90819378 0.41442343)
(1 0 0)
(-0.058508264 -0.94350429 0.326154)
(1 0 0)
(-0.05840327 -0.97024923 0.23495847)
(1 0 0)
(-0.058390926 -0.98818208 0.14172745)
(1 0 0)
(-0.06262673 -0.9969153 0.047305206)
(1 0 0)
(-0.06262673 -0.9969153 -0.047305206)
(1 0 0)
(-0.058918584 -0.98815139 -0.14172305)
(1 0 0)
(-0.059530943 -0.97018449 -0.2349428)
(1 0 0)
(-0.059672268 -0.94343917 -0.32613149)
(1 0 0)
(-0.059632589 -0.90813966 -0.41439873)
(1 -0 0)
(-0.059690275 -0.8645871 -0.49892507)
(1 -0 0)
(-0.059303391 -0.81319385 -0.57896362)
(1 -0 0)
(-0.059418726 -0.75450414 -0.65359997)
(1 -0 0)
(-0.058949031 -0.68864563 -0.72269787)
(1 -0 0)
(-0.058550073 -0.61719313 -0.78463019)
(1 -0 0)
(-0.058641316 -0.53937173 -0.84002341)
(1 -0 0)
(-0.058910699 -0.45724212 -0.88738897)
(1 -0 0)
(-0.05933449 -0.37094456 -0.92675755)
(1 -0 0)
(-0.059918806 -0.28080715 -0.957892)
(1 -0 0)
(-0.060216475 -0.18897507 -0.98013387)
(1 -0 0)
(-0.061416887 -0.094102884 -0.99366625)
(1 0 0)
(-0.06191308 -0 -0.99808155)
(1 0 0)
(-0.061756356 0.094100909 -0.9936454)
(1 0 0)
(-0.062081424 0.18895344 -0.98002168)
(1 0 0)
(-0.061221052 0.28078492 -0.95781617)
(1 0 0)
(-0.06059998 0.37091631 -0.92668697)
(1 0 0)
(-0.059879499 0.45721571 -0.88733772)
(1 0 -0)
(-0.059034105 0.53935923 -0.84000393)
(1 0 -0)
(-0.058745568 0.61718603 -0.78462116)
(1 0 -0)
(-0.058163227 0.68867743 -0.72273124)
(1 0 -0)
(-0.058004939 0.75456699 -0.65365441)
(1 0 -0)
(-0.057188245 0.81329438 -0.57903519)
(1 0 -0)
(-0.057220748 0.86471234 -0.49899735)
(1 0 -0)
(-0.057471235 0.90825499 -0.41445136)
(1 0 -0)
(-0.057431919 0.94356336 -0.32617442)
(1 0 -0)
(-0.057658243 0.97029132 -0.23496867)
(1 0 -0)
(-0.057874874 0.98821183 -0.14173172)
(1 0 -0)
(-0.058123442 0.99718738 -0.047318117)
)

// normal volume types

132
(
0
0
0
0
0
0
0
0
0
0
0
0
0
0
0
0
0
0
0
0
0
0
0
0
0
0
0
0
0
0
0
0
0
0
0
0
0
0
0
0
0
0
0
0
0
0
0
0
0
0
0
0
0
0
0
0
0
0
0
0
0
0
0
0
0
0
0
0
0
0
0
0
0
0
0
0
0
0
0
0
0
0
0
0
0
0
0
0
0
0
0
0
0
0
0
0
0
0
0
0
0
0
0
0
0
0
0
0
0
0
0
0
0
0
0
0
0
0
0
0
0
0
0
0
0
0
0
0
0
0
0
0
)

// normalDirections

66
(
2(1 -1)
2(1 -1)
2(1 -1)
2(1 -1)
2(1 -1)
2(1 -1)
2(1 -1)
2(1 -1)
2(1 -1)
2(1 -1)
2(1 -1)
2(1 -1)
2(1 -1)
2(1 -1)
2(1 -1)
2(1 -1)
2(1 -1)
2(1 -1)
2(1 -1)
2(1 -1)
2(1 -1)
2(1 -1)
2(1 -1)
2(1 -1)
2(1 -1)
2(1 -1)
2(1 -1)
2(1 -1)
2(1 -1)
2(1 -1)
2(1 -1)
2(1 -1)
2(1 -1)
2(1 -1)
2(1 -1)
2(1 -1)
2(1 -1)
2(1 -1)
2(1 -1)
2(1 -1)
2(1 -1)
2(1 -1)
2(1 -1)
2(1 -1)
2(1 -1)
2(1 -1)
2(1 -1)
2(1 -1)
2(1 -1)
2(1 -1)
2(1 -1)
2(1 -1)
2(1 -1)
2(1 -1)
2(1 -1)
2(1 -1)
2(1 -1)
2(1 -1)
2(1 -1)
2(1 -1)
2(1 -1)
2(1 -1)
2(1 -1)
2(1 -1)
2(1 -1)
2(1 -1)
)

// edgeNormals

66
(
2(0 1)
2(2 3)
2(4 5)
2(6 7)
2(8 9)
2(10 11)
2(12 13)
2(14 15)
2(16 17)
2(18 19)
2(20 21)
2(22 23)
2(24 25)
2(26 27)
2(28 29)
2(30 31)
2(32 33)
2(34 35)
2(36 37)
2(38 39)
2(40 41)
2(42 43)
2(44 45)
2(46 47)
2(48 49)
2(50 51)
2(52 53)
2(54 55)
2(56 57)
2(58 59)
2(60 61)
2(62 63)
2(64 65)
2(66 67)
2(68 69)
2(70 71)
2(72 73)
2(74 75)
2(76 77)
2(78 79)
2(80 81)
2(82 83)
2(84 85)
2(86 87)
2(88 89)
2(90 91)
2(92 93)
2(94 95)
2(96 97)
2(98 99)
2(100 101)
2(102 103)
2(104 105)
2(106 107)
2(108 109)
2(110 111)
2(112 113)
2(114 115)
2(116 117)
2(118 119)
2(120 121)
2(122 123)
2(124 125)
2(126 127)
2(128 129)
2(130 131)
)

// featurePointNormals
0()
// featurePointEdges
0()
// regionEdges

66
(
0
1
2
3
4
5
6
7
8
9
10
11
12
13
14
15
16
17
18
19
20
21
22
23
24
25
26
27
28
29
30
31
32
33
34
35
36
37
38
39
40
41
42
43
44
45
46
47
48
49
50
51
52
53
54
55
56
57
58
59
60
61
62
63
64
65
)



// ************************************************************************* //
