/*--------------------------------*- C++ -*----------------------------------*\
| =========                 |                                                 |
| \\      /  F ield         | OpenFOAM: The Open Source CFD Toolbox           |
|  \\    /   O peration     | Version:  2406                                  |
|   \\  /    A nd           | Website:  www.openfoam.com                      |
|    \\/     M anipulation  |                                                 |
\*---------------------------------------------------------------------------*/
FoamFile
{
    version     2.0;
    format      ascii;
    arch        "LSB;label=32;scalar=64";
    class       extendedFeatureEdgeMesh;
    location    "constant/extendedFeatureEdgeMesh";
    object      MRF_REGION.extendedFeatureEdgeMesh;
}
// * * * * * * * * * * * * * * * * * * * * * * * * * * * * * * * * * * * * * //

// points

142
(
(-3.51377 -0.0626291 0.224699)
(-3.51377 -0.0706799 0.218882)
(-3.51377 -0.0781932 0.212386)
(-3.51377 -0.0851117 0.20526)
(-3.51377 -0.0913827 0.197558)
(-3.51377 -0.0969586 0.189338)
(-3.51377 -0.101797 0.180664)
(-3.51377 -0.105861 0.171602)
(-3.51377 -0.109119 0.162219)
(-3.51377 -0.111548 0.152588)
(-3.51377 -0.113128 0.142783)
(-3.51377 -0.113847 0.132877)
(-3.51377 -0.1137 0.122945)
(-3.51377 -0.112688 0.113065)
(-3.51377 -0.110819 0.10331)
(-3.51377 -0.108107 0.0937554)
(-3.51377 -0.104572 0.0844732)
(-3.51377 -0.100242 0.0755349)
(-3.51377 -0.0951476 0.0670085)
(-3.51377 -0.0893296 0.0589587)
(-3.51377 -0.082833 0.0514459)
(-3.51377 -0.0757076 0.0445266)
(-3.51377 -0.0680067 0.0382539)
(-3.51377 -0.0597881 0.0326769)
(-3.51377 -0.0511138 0.027839)
(-3.51377 -0.0420504 0.0237767)
(-3.51377 -0.0326677 0.0205186)
(-3.51377 -0.0230372 0.0180892)
(-3.51377 -0.0132314 0.0165097)
(-3.51377 -0.00332516 0.0157924)
(-3.51377 0.00660595 0.0159404)
(-3.51377 0.0164866 0.0169515)
(-3.51377 0.0262414 0.0188202)
(-3.51377 0.0357957 0.0215337)
(-3.51377 0.0450773 0.0250693)
(-3.51377 0.0540164 0.0293984)
(-3.51377 0.0625288 0.0345114)
(-3.51377 0.0705965 0.0403044)
(-3.51377 0.0781092 0.0468011)
(-3.51377 0.0850255 0.0539293)
(-3.51377 0.0912938 0.0616335)
(-3.51377 0.0968683 0.0698538)
(-3.51377 0.101708 0.0785272)
(-3.51377 0.105774 0.087589)
(-3.51377 0.109032 0.0969712)
(-3.51377 0.11146 0.106602)
(-3.51377 0.11304 0.116408)
(-3.51377 0.113759 0.126314)
(-3.51377 0.113612 0.136245)
(-3.51377 0.112599 0.146125)
(-3.51377 0.11073 0.155879)
(-3.51377 0.108018 0.165433)
(-3.51377 0.104483 0.174714)
(-3.51377 0.100153 0.183652)
(-3.51377 0.0950607 0.192179)
(-3.51377 0.0892442 0.20023)
(-3.51377 0.0827481 0.207743)
(-3.51377 0.0756219 0.214662)
(-3.51377 0.0679198 0.220933)
(-3.51377 0.0597005 0.226508)
(-3.51377 0.0510265 0.231347)
(-3.51377 0.0419639 0.235411)
(-3.51377 0.0325815 0.238669)
(-3.51377 0.0229508 0.241098)
(-3.51377 0.0131452 0.242678)
(-3.51377 0.00323911 0.243397)
(-3.51377 -0.00669193 0.24325)
(-3.51377 -0.0165724 0.242238)
(-3.51377 -0.026327 0.240369)
(-3.51377 -0.0358817 0.237657)
(-3.51377 -0.0451635 0.234122)
(-3.51377 -0.054102 0.229792)
(-3.38256 -0.0626293 0.224699)
(-3.38256 -0.0708511 0.218711)
(-3.38256 -0.0785232 0.212035)
(-3.38256 -0.0855689 0.204701)
(-3.38256 -0.0919318 0.196767)
(-3.38256 -0.0975611 0.188297)
(-3.38256 -0.102412 0.179358)
(-3.38256 -0.106446 0.170022)
(-3.38256 -0.10963 0.160363)
(-3.38256 -0.111939 0.150459)
(-3.38256 -0.113356 0.140388)
(-3.38256 -0.113867 0.13023)
(-3.38256 -0.11347 0.120068)
(-3.38256 -0.112168 0.109981)
(-3.38256 -0.109972 0.10005)
(-3.38256 -0.106897 0.0903557)
(-3.38256 -0.102968 0.0809745)
(-3.38256 -0.098217 0.0719813)
(-3.38256 -0.0926828 0.0634477)
(-3.38256 -0.0864098 0.0554412)
(-3.38256 -0.0794482 0.0480255)
(-3.38256 -0.0718066 0.0412202)
(-3.38256 -0.0635854 0.0351282)
(-3.38256 -0.0548493 0.0298)
(-3.38256 -0.0456656 0.025287)
(-3.38256 -0.036114 0.0216171)
(-3.38256 -0.0262723 0.0188176)
(-3.38256 -0.0162193 0.0169131)
(-3.38256 -0.0060361 0.0159198)
(-3.38256 0.00419495 0.0158439)
(-3.38256 0.0143914 0.0166851)
(-3.38256 0.024471 0.0184385)
(-3.38256 0.0343518 0.0210915)
(-3.38256 0.0439547 0.0246203)
(-3.38256 0.0532031 0.0289943)
(-3.38256 0.0620222 0.0341797)
(-3.38256 0.0703395 0.0401366)
(-3.38256 0.0780869 0.046818)
(-3.38256 0.0852018 0.0541693)
(-3.38256 0.0916281 0.0621297)
(-3.38256 0.0973157 0.0706337)
(-3.38256 0.10222 0.0796127)
(-3.38256 0.106298 0.0889955)
(-3.38256 0.109516 0.0987073)
(-3.38256 0.111849 0.108669)
(-3.38256 0.113279 0.1188)
(-3.38256 0.113793 0.129019)
(-3.38256 0.113387 0.139243)
(-3.38256 0.112065 0.14939)
(-3.38256 0.109837 0.159377)
(-3.38256 0.106722 0.169124)
(-3.38256 0.102741 0.17855)
(-3.38256 0.0979275 0.18758)
(-3.38256 0.0923231 0.196141)
(-3.38256 0.0859729 0.204164)
(-3.38256 0.0789281 0.211585)
(-3.38256 0.0712458 0.218343)
(-3.38256 0.062988 0.224384)
(-3.38256 0.0542213 0.229659)
(-3.38256 0.0450165 0.234126)
(-3.38256 0.0354481 0.237748)
(-3.38256 0.0255932 0.240497)
(-3.38256 0.0155314 0.24235)
(-3.38256 0.00534409 0.243292)
(-3.38256 -0.00488661 0.243315)
(-3.38256 -0.015078 0.24242)
(-3.38256 -0.0251479 0.240614)
(-3.38256 -0.0350149 0.237911)
(-3.38256 -0.0445994 0.234333)
(-3.38256 -0.0538239 0.229909)
)

// edges

142
(
(0 1)
(1 2)
(2 3)
(3 4)
(4 5)
(5 6)
(6 7)
(7 8)
(8 9)
(9 10)
(10 11)
(11 12)
(12 13)
(13 14)
(14 15)
(15 16)
(16 17)
(17 18)
(18 19)
(19 20)
(20 21)
(21 22)
(22 23)
(23 24)
(24 25)
(25 26)
(26 27)
(27 28)
(28 29)
(29 30)
(30 31)
(31 32)
(32 33)
(33 34)
(34 35)
(35 36)
(36 37)
(37 38)
(38 39)
(39 40)
(40 41)
(41 42)
(42 43)
(43 44)
(44 45)
(45 46)
(46 47)
(47 48)
(48 49)
(49 50)
(50 51)
(51 52)
(52 53)
(53 54)
(54 55)
(55 56)
(56 57)
(57 58)
(58 59)
(59 60)
(60 61)
(61 62)
(62 63)
(63 64)
(64 65)
(65 66)
(66 67)
(67 68)
(68 69)
(69 70)
(70 71)
(71 0)
(72 73)
(73 74)
(74 75)
(75 76)
(76 77)
(77 78)
(78 79)
(79 80)
(80 81)
(81 82)
(82 83)
(83 84)
(84 85)
(85 86)
(86 87)
(87 88)
(88 89)
(89 90)
(90 91)
(91 92)
(92 93)
(93 94)
(94 95)
(95 96)
(96 97)
(97 98)
(98 99)
(99 100)
(100 101)
(101 102)
(102 103)
(103 104)
(104 105)
(105 106)
(106 107)
(107 108)
(108 109)
(109 110)
(110 111)
(111 112)
(112 113)
(113 114)
(114 115)
(115 116)
(116 117)
(117 118)
(118 119)
(119 120)
(120 121)
(121 122)
(122 123)
(123 124)
(124 125)
(125 126)
(126 127)
(127 128)
(128 129)
(129 130)
(130 131)
(131 132)
(132 133)
(133 134)
(134 135)
(135 136)
(136 137)
(137 138)
(138 139)
(139 140)
(140 141)
(141 72)
)

// concaveStart mixedStart nonFeatureStart
0 0 0
// internalStart flatStart openStart multipleStart
0 142 142 142
// normals

284
(
(1 0 0)
(0 0.58565817 -0.81055815)
(1 0 0)
(-7.1491726e-05 0.65403735 -0.75646225)
(1 0 0)
(9.4968369e-06 0.7174756 -0.69658363)
(1 0 0)
(9.4459515e-05 0.77546684 -0.63138829)
(1 0 0)
(0.00017715661 0.8275673 -0.56136649)
(1 0 0)
(0.00030357734 0.87332199 -0.48714332)
(1 0 0)
(0.0003792622 0.91244445 -0.40920042)
(1 0 0)
(0.00045613602 0.94467313 -0.3280129)
(1 0 0)
(0.00059493751 0.96963685 -0.24454863)
(1 0 0)
(0.00068375779 0.98726386 -0.15908994)
(1 0 0)
(0.00070053157 0.99737602 -0.072391819)
(1 0 0)
(0.0007479902 0.99989021 0.014799019)
(1 0 0)
(0.00075176903 0.99479477 0.10189598)
(1 0 0)
(0.00064519014 0.98213599 0.18817142)
(1 0 0)
(0.0005299368 0.96199806 0.27305578)
(1 0 0)
(0.00046299761 0.93452368 0.35590067)
(1 0 0)
(0.00034673915 0.89996109 0.4359701)
(1 -0 0)
(0.0001437963 0.85844377 0.51290767)
(1 -0 0)
(-8.5856432e-05 0.81047581 0.5857721)
(1 -0 0)
(-0.00030128795 0.7564108 0.65409679)
(1 -0 0)
(-0.00050213259 0.6966552 0.71740594)
(1 -0 0)
(-0.00073012897 0.63154526 0.77533867)
(1 -0 0)
(-0.00093325737 0.56150758 0.82747107)
(1 -0 0)
(-0.0010756607 0.48709181 0.87335011)
(1 -0 0)
(-0.0011600591 0.40900504 0.91253139)
(1 -0 0)
(-0.0012006579 0.32803104 0.94466618)
(1 -0 0)
(-0.0012024901 0.2445983 0.96962375)
(1 -0 0)
(-0.0011755807 0.15902815 0.98727335)
(1 -0 0)
(-0.0011184149 0.072219782 0.99738812)
(1 0 0)
(-0.0010398246 -0.014901002 0.99988843)
(1 0 0)
(-0.0009423667 -0.10179966 0.99480447)
(1 0 0)
(-0.00084470501 -0.18814597 0.98214071)
(1 0 0)
(-0.00074468504 -0.27320344 0.96195599)
(1 0 0)
(-0.00063959757 -0.35597348 0.93449584)
(1 0 0)
(-0.00054233066 -0.43586506 0.90001186)
(1 0 -0)
(-0.00046130581 -0.51490735 0.85724571)
(1 0 -0)
(0.0013576806 -0.58325974 0.81228458)
(1 0 -0)
(-0.00022881007 -0.65410755 0.75640152)
(1 0 -0)
(-0.00012511379 -0.71769375 0.69635887)
(1 0 -0)
(-8.7872115e-06 -0.7756882 0.63111632)
(1 0 -0)
(0.00010817541 -0.8276423 0.56125592)
(1 0 -0)
(0.00021762113 -0.87325198 0.48726885)
(1 0 -0)
(0.00032336426 -0.91236589 0.40937559)
(1 0 -0)
(0.00040011842 -0.94466449 0.32803787)
(1 0 -0)
(0.00059739743 -0.96965951 0.24445875)
(1 0 -0)
(0.00068288466 -0.98726641 0.15907413)
(1 0 -0)
(0.00077445247 -0.99737597 0.072391815)
(1 0 0)
(0.00088592486 -0.99989007 -0.014800508)
(1 0 0)
(0.0010597026 -0.99478429 -0.1019956)
(1 0 0)
(0.0012188803 -0.9821319 -0.18818992)
(1 0 0)
(0.0013921435 -0.96199276 -0.27307142)
(1 0 0)
(0.0015303567 -0.93450738 -0.35594048)
(1 0 0)
(0.0016392322 -0.89995419 -0.43598139)
(1 0 0)
(0.00095346439 -0.85855236 -0.51272501)
(1 0 0)
(0.0004813426 -0.81058886 -0.58561546)
(1 0 0)
(-0.00055580374 -0.75644424 -0.65405795)
(1 0 0)
(-0.0010895634 -0.69659907 -0.71745979)
(1 0 0)
(-0.0021503852 -0.6313819 -0.77546907)
(1 0 0)
(-0.002065037 -0.56133598 -0.82758544)
(1 0 0)
(-0.0019094679 -0.48718852 -0.87329474)
(1 0 0)
(-0.001789299 -0.40917724 -0.91245317)
(1 0 0)
(-0.0016505704 -0.32803121 -0.94466544)
(1 0 0)
(-0.0014348125 -0.24455559 -0.96963421)
(1 0 0)
(-0.001350606 -0.15908035 -0.98726472)
(1 0 0)
(-0.0012676231 -0.072391125 -0.99737552)
(1 0 0)
(-0.0011621791 0.014800444 -0.99988979)
(1 0 0)
(-0.0010245605 0.10189116 -0.99479502)
(1 0 0)
(-0.00091997401 0.18817882 -0.98213435)
(1 0 0)
(-0.00077347496 0.27305309 -0.96199865)
(1 0 0)
(-0.00064869371 0.35591403 -0.93451848)
(1 0 0)
(-0.00053214851 0.43596216 -0.89996484)
(1 0 0)
(-0.000355896 0.51277273 -0.85852432)
(-0.00027716942 0.58871871 -0.80833793)
(-1 0 0)
(-0.00034795788 0.65643668 -0.75438105)
(-1 0 0)
(-0.00041683252 0.72113865 -0.69279064)
(-1 0 0)
(-0.00049587581 0.78011512 -0.6256358)
(-1 0 0)
(-0.00056590789 0.83283746 -0.55351734)
(-1 0 0)
(-0.00063858615 0.87892333 -0.47696266)
(-1 0 0)
(-0.00065516067 0.91797104 -0.39664687)
(-1 0 0)
(-0.00078732458 0.94972984 -0.31306966)
(-1 0 0)
(-0.00087272761 0.97388289 -0.22704923)
(-1 0 0)
(-0.00090583855 0.99024579 -0.1393286)
(-1 0 0)
(-0.0009719981 0.99873662 -0.050241624)
(-1 0 0)
(-0.0010668527 0.99923718 0.039037312)
(-1 0 0)
(-0.0011244952 0.9917716 0.12801493)
(-1 0 0)
(-0.0011818716 0.97641256 0.21590998)
(-1 0 0)
(-0.0011814392 0.95319604 0.30235064)
(-1 0 0)
(-0.001092491 0.92237087 0.38630401)
(-1 0 0)
(-0.00047307102 0.88419834 0.46711141)
(-1 0 0)
(6.0612405e-05 0.83901102 0.54411442)
(-1 0 0)
(0.00059569493 0.78716865 0.61673752)
(-1 0 0)
(0.0013908175 0.72907613 0.68443119)
(-1 0 0)
(0.0018606684 0.66505936 0.74678818)
(-1 0 0)
(0.0021488715 0.5953664 0.80345145)
(-1 0 0)
(0.0024013773 0.52069923 0.85373682)
(-1 0 0)
(0.002117738 0.44103741 0.89748622)
(-1 0 0)
(0.0018424221 0.35865559 0.93346814)
(-1 0 0)
(0.001591125 0.2735989 0.96184256)
(-1 0 0)
(0.0013612814 0.18613503 0.98252323)
(-1 0 0)
(0.001153293 0.09708219 0.9952757)
(-1 0 0)
(0.00096496062 0.0074183858 0.99997202)
(-1 0 0)
(0.00078278841 -0.08221995 0.9966139)
(-1 -0 0)
(0.000620097 -0.17138157 0.98520453)
(-1 -0 0)
(0.00046533391 -0.25931579 0.96579248)
(-1 -0 0)
(0.00032002379 -0.34492114 0.93863161)
(-1 -0 0)
(0.0001913195 -0.42754171 0.9039956)
(-1 -0 0)
(8.360876e-05 -0.50685267 0.8620327)
(-1 -0 0)
(-4.3960498e-05 -0.58227147 0.81299442)
(-1 -0 0)
(-0.00013292373 -0.65308578 0.75728392)
(-1 -0 0)
(-0.00021803879 -0.71856604 0.6954587)
(-1 -0 0)
(-0.00028165968 -0.77809659 0.62814458)
(-1 -0 0)
(-0.00034039946 -0.83122526 0.55593565)
(-1 -0 0)
(-0.00035397996 -0.87762157 0.47935399)
(-1 0 0)
(-0.00044041494 -0.91712279 0.39860455)
(-1 0 0)
(-0.00049409082 -0.94924661 0.31453238)
(-1 0 0)
(-0.00046444671 -0.9736547 0.22802699)
(-1 0 0)
(-0.00048088449 -0.99018452 0.13976546)
(-1 0 0)
(-0.0004508175 -0.99873733 0.050234953)
(-1 0 0)
(-0.00046051099 -0.99921236 -0.039679208)
(-1 0 -0)
(-0.00039353553 -0.9916194 -0.12919295)
(-1 0 -0)
(-0.00033746421 -0.97600731 -0.21773749)
(-1 0 -0)
(-0.0002384511 -0.95253866 -0.30441756)
(-1 0 -0)
(-0.00031529946 -0.92120982 -0.38906602)
(-1 0 -0)
(-1.7411561e-05 -0.88245436 -0.47039802)
(-1 0 -0)
(0.00021697556 -0.83666404 -0.54771638)
(-1 0 -0)
(0.00039677224 -0.78410957 -0.62062229)
(-1 0 -0)
(0.00054797901 -0.7252506 -0.68848476)
(-1 0 -0)
(0.00063825755 -0.66049423 -0.75083085)
(-1 0 -0)
(0.0006749132 -0.59042757 -0.80709035)
(-1 0 -0)
(0.00064210781 -0.51557181 -0.85684614)
(-1 0 -0)
(0.00059616726 -0.43659522 -0.89965786)
(-1 0 0)
(0.00041868127 -0.35402239 -0.93523685)
(-1 0 0)
(0.00034198406 -0.26868971 -0.96322672)
(-1 0 0)
(0.00025714169 -0.18111615 -0.98346168)
(-1 0 0)
(0.00017208484 -0.092075182 -0.99575204)
(-1 0 0)
(7.4264189e-05 -0.0022481298 -0.99999747)
(-1 0 0)
(2.1946449e-05 0.087482534 -0.99616605)
(-1 0 0)
(-6.1621334e-05 0.17652979 -0.9842953)
(-1 0 0)
(-0.00013866766 0.26420899 -0.96446544)
(-1 0 0)
(-0.00018802774 0.34973586 -0.93684833)
(-1 0 0)
(-0.00020882593 0.43243233 -0.90166637)
(-1 0 0)
(0 0.50922251 -0.8606349)
(-1 0 0)
)

// normal volume types

284
(
0
0
0
0
0
0
0
0
0
0
0
0
0
0
0
0
0
0
0
0
0
0
0
0
0
0
0
0
0
0
0
0
0
0
0
0
0
0
0
0
0
0
0
0
0
0
0
0
0
0
0
0
0
0
0
0
0
0
0
0
0
0
0
0
0
0
0
0
0
0
0
0
0
0
0
0
0
0
0
0
0
0
0
0
0
0
0
0
0
0
0
0
0
0
0
0
0
0
0
0
0
0
0
0
0
0
0
0
0
0
0
0
0
0
0
0
0
0
0
0
0
0
0
0
0
0
0
0
0
0
0
0
0
0
0
0
0
0
0
0
0
0
0
0
0
0
0
0
0
0
0
0
0
0
0
0
0
0
0
0
0
0
0
0
0
0
0
0
0
0
0
0
0
0
0
0
0
0
0
0
0
0
0
0
0
0
0
0
0
0
0
0
0
0
0
0
0
0
0
0
0
0
0
0
0
0
0
0
0
0
0
0
0
0
0
0
0
0
0
0
0
0
0
0
0
0
0
0
0
0
0
0
0
0
0
0
0
0
0
0
0
0
0
0
0
0
0
0
0
0
0
0
0
0
0
0
0
0
0
0
0
0
0
0
0
0
0
0
0
0
0
0
0
0
0
0
0
0
0
0
0
0
0
0
)

// normalDirections

142
(
2(1 -1)
2(1 -1)
2(1 -1)
2(1 -1)
2(1 -1)
2(1 -1)
2(1 -1)
2(1 -1)
2(1 -1)
2(1 -1)
2(1 -1)
2(1 -1)
2(1 -1)
2(1 -1)
2(1 -1)
2(1 -1)
2(1 -1)
2(1 -1)
2(1 -1)
2(1 -1)
2(1 -1)
2(1 -1)
2(1 -1)
2(1 -1)
2(1 -1)
2(1 -1)
2(1 -1)
2(1 -1)
2(1 -1)
2(1 -1)
2(1 -1)
2(1 -1)
2(1 -1)
2(1 -1)
2(1 -1)
2(1 -1)
2(1 -1)
2(1 -1)
2(1 -1)
2(1 -1)
2(1 -1)
2(1 -1)
2(1 -1)
2(1 -1)
2(1 -1)
2(1 -1)
2(1 -1)
2(1 -1)
2(1 -1)
2(1 -1)
2(1 -1)
2(1 -1)
2(1 -1)
2(1 -1)
2(1 -1)
2(1 -1)
2(1 -1)
2(1 -1)
2(1 -1)
2(1 -1)
2(1 -1)
2(1 -1)
2(1 -1)
2(1 -1)
2(1 -1)
2(1 -1)
2(1 -1)
2(1 -1)
2(1 -1)
2(1 -1)
2(1 -1)
2(1 -1)
2(1 -1)
2(1 -1)
2(1 -1)
2(1 -1)
2(1 -1)
2(1 -1)
2(1 -1)
2(1 -1)
2(1 -1)
2(1 -1)
2(1 -1)
2(1 -1)
2(1 -1)
2(1 -1)
2(1 -1)
2(1 -1)
2(1 -1)
2(1 -1)
2(1 -1)
2(1 -1)
2(1 -1)
2(1 -1)
2(1 -1)
2(1 -1)
2(1 -1)
2(1 -1)
2(1 -1)
2(1 -1)
2(1 -1)
2(1 -1)
2(1 -1)
2(1 -1)
2(1 -1)
2(1 -1)
2(1 -1)
2(1 -1)
2(1 -1)
2(1 -1)
2(1 -1)
2(1 -1)
2(1 -1)
2(1 -1)
2(1 -1)
2(1 -1)
2(1 -1)
2(1 -1)
2(1 -1)
2(1 -1)
2(1 -1)
2(1 -1)
2(1 -1)
2(1 -1)
2(1 -1)
2(1 -1)
2(1 -1)
2(1 -1)
2(1 -1)
2(1 -1)
2(1 -1)
2(1 -1)
2(1 -1)
2(1 -1)
2(1 -1)
2(1 -1)
2(1 -1)
2(1 -1)
2(1 -1)
2(1 -1)
2(1 -1)
2(1 -1)
)

// edgeNormals

142
(
2(0 1)
2(2 3)
2(4 5)
2(6 7)
2(8 9)
2(10 11)
2(12 13)
2(14 15)
2(16 17)
2(18 19)
2(20 21)
2(22 23)
2(24 25)
2(26 27)
2(28 29)
2(30 31)
2(32 33)
2(34 35)
2(36 37)
2(38 39)
2(40 41)
2(42 43)
2(44 45)
2(46 47)
2(48 49)
2(50 51)
2(52 53)
2(54 55)
2(56 57)
2(58 59)
2(60 61)
2(62 63)
2(64 65)
2(66 67)
2(68 69)
2(70 71)
2(72 73)
2(74 75)
2(76 77)
2(78 79)
2(80 81)
2(82 83)
2(84 85)
2(86 87)
2(88 89)
2(90 91)
2(92 93)
2(94 95)
2(96 97)
2(98 99)
2(100 101)
2(102 103)
2(104 105)
2(106 107)
2(108 109)
2(110 111)
2(112 113)
2(114 115)
2(116 117)
2(118 119)
2(120 121)
2(122 123)
2(124 125)
2(126 127)
2(128 129)
2(130 131)
2(132 133)
2(134 135)
2(136 137)
2(138 139)
2(140 141)
2(142 143)
2(144 145)
2(146 147)
2(148 149)
2(150 151)
2(152 153)
2(154 155)
2(156 157)
2(158 159)
2(160 161)
2(162 163)
2(164 165)
2(166 167)
2(168 169)
2(170 171)
2(172 173)
2(174 175)
2(176 177)
2(178 179)
2(180 181)
2(182 183)
2(184 185)
2(186 187)
2(188 189)
2(190 191)
2(192 193)
2(194 195)
2(196 197)
2(198 199)
2(200 201)
2(202 203)
2(204 205)
2(206 207)
2(208 209)
2(210 211)
2(212 213)
2(214 215)
2(216 217)
2(218 219)
2(220 221)
2(222 223)
2(224 225)
2(226 227)
2(228 229)
2(230 231)
2(232 233)
2(234 235)
2(236 237)
2(238 239)
2(240 241)
2(242 243)
2(244 245)
2(246 247)
2(248 249)
2(250 251)
2(252 253)
2(254 255)
2(256 257)
2(258 259)
2(260 261)
2(262 263)
2(264 265)
2(266 267)
2(268 269)
2(270 271)
2(272 273)
2(274 275)
2(276 277)
2(278 279)
2(280 281)
2(282 283)
)

// featurePointNormals
0()
// featurePointEdges
0()
// regionEdges
0()


// ************************************************************************* //
