/*--------------------------------*- C++ -*----------------------------------*\
| =========                 |                                                 |
| \\      /  F ield         | OpenFOAM: The Open Source CFD Toolbox           |
|  \\    /   O peration     | Version:  2406                                  |
|   \\  /    A nd           | Website:  www.openfoam.com                      |
|    \\/     M anipulation  |                                                 |
\*---------------------------------------------------------------------------*/
FoamFile
{
    version     2.0;
    format      ascii;
    arch        "LSB;label=32;scalar=64";
    class       polyBoundaryMesh;
    location    "constant/polyMesh";
    object      boundary;
}
// * * * * * * * * * * * * * * * * * * * * * * * * * * * * * * * * * * * * * //

6
(
    BLADES
    {
        type            wall;
        inGroups        1(wall);
        nFaces          3883;
        startFace       51343;
    }
    HUB_DISK
    {
        type            wall;
        inGroups        1(wall);
        nFaces          0;
        startFace       55226;
    }
    HUB
    {
        type            wall;
        inGroups        1(wall);
        nFaces          306;
        startFace       55226;
    }
    MRF_REGION
    {
        type            wall;
        inGroups        1(wall);
        nFaces          468;
        startFace       55532;
    }
    procBoundary6to5
    {
        type            processor;
        inGroups        1(processor);
        nFaces          5673;
        startFace       56000;
        matchTolerance  0.0001;
        transform       unknown;
        myProcNo        6;
        neighbProcNo    5;
    }
    procBoundary6to7
    {
        type            processor;
        inGroups        1(processor);
        nFaces          3083;
        startFace       61673;
        matchTolerance  0.0001;
        transform       unknown;
        myProcNo        6;
        neighbProcNo    7;
    }
)

// ************************************************************************* //
