/*--------------------------------*- C++ -*----------------------------------*\
| =========                 |                                                 |
| \\      /  F ield         | OpenFOAM: The Open Source CFD Toolbox           |
|  \\    /   O peration     | Version:  v2406                                 |
|   \\  /    A nd           | Website:  www.openfoam.com                      |
|    \\/     M anipulation  |                                                 |
\*---------------------------------------------------------------------------*/
FoamFile
{
    version     2.0;
    format      ascii;
    class       dictionary;
    object      controlDict;
}
// * * * * * * * * * * * * * * * * * * * * * * * * * * * * * * * * * * * * * //

libs            (overset rigidBodyDynamics);

application     overInterDyMFoam;

startFrom       latestTime;

startTime       0;

stopAt          endTime;

endTime         10;

deltaT          1e-4;

writeControl    adjustableRunTime;

writeInterval   0.05;

purgeWrite      0;

writeFormat     binary;

writePrecision  8;

writeCompression off;

timeFormat      general;

timePrecision   8;

runTimeModifiable yes;

adjustTimeStep  yes;

maxAlphaCo      15;

maxCo           70;

maxDeltaT       1;

functions
{
    #include "forces"
    minMax1
    {
        libs            (fieldFunctionObjects);
        type            fieldMinMax;
        fields          (U p);
    }
}


// ************************************************************************* //
