/*--------------------------------*- C++ -*----------------------------------*\
| =========                 |                                                 |
| \\      /  F ield         | OpenFOAM: The Open Source CFD Toolbox           |
|  \\    /   O peration     | Version:  2406                                  |
|   \\  /    A nd           | Website:  www.openfoam.com                      |
|    \\/     M anipulation  |                                                 |
\*---------------------------------------------------------------------------*/
FoamFile
{
    version     2.0;
    format      ascii;
    arch        "LSB;label=32;scalar=64";
    class       polyBoundaryMesh;
    location    "constant/polyMesh";
    object      boundary;
}
// * * * * * * * * * * * * * * * * * * * * * * * * * * * * * * * * * * * * * //

4
(
    overset-1
    {
        type            overset;
        inGroups        1(overset);
        nFaces          2480;
        startFace       134516;
    }
    HULL
    {
        type            wall;
        inGroups        1(wall);
        nFaces          9828;
        startFace       136996;
    }
    HULL_DISK
    {
        type            wall;
        inGroups        1(wall);
        nFaces          0;
        startFace       146824;
    }
    procBoundary7to6
    {
        type            processor;
        inGroups        1(processor);
        nFaces          820;
        startFace       146824;
        matchTolerance  0.0001;
        transform       unknown;
        myProcNo        7;
        neighbProcNo    6;
    }
)

// ************************************************************************* //
