/*--------------------------------*- C++ -*----------------------------------*\
| =========                 |                                                 |
| \\      /  F ield         | OpenFOAM: The Open Source CFD Toolbox           |
|  \\    /   O peration     | Version:  2406                                  |
|   \\  /    A nd           | Website:  www.openfoam.com                      |
|    \\/     M anipulation  |                                                 |
\*---------------------------------------------------------------------------*/
FoamFile
{
    version     2.0;
    format      ascii;
    arch        "LSB;label=32;scalar=64";
    class       polyBoundaryMesh;
    location    "constant/polyMesh";
    object      boundary;
}
// * * * * * * * * * * * * * * * * * * * * * * * * * * * * * * * * * * * * * //

6
(
    overset-1
    {
        type            overset;
        inGroups        1(overset);
        nFaces          0;
        startFace       130689;
    }
    HULL
    {
        type            wall;
        inGroups        1(wall);
        nFaces          258;
        startFace       130689;
    }
    HULL_DISK
    {
        type            wall;
        inGroups        1(wall);
        nFaces          92;
        startFace       130947;
    }
    procBoundary4to2
    {
        type            processor;
        inGroups        1(processor);
        nFaces          126;
        startFace       131039;
        matchTolerance  0.0001;
        transform       unknown;
        myProcNo        4;
        neighbProcNo    2;
    }
    procBoundary4to3
    {
        type            processor;
        inGroups        1(processor);
        nFaces          5406;
        startFace       131165;
        matchTolerance  0.0001;
        transform       unknown;
        myProcNo        4;
        neighbProcNo    3;
    }
    procBoundary4to5
    {
        type            processor;
        inGroups        1(processor);
        nFaces          5138;
        startFace       136571;
        matchTolerance  0.0001;
        transform       unknown;
        myProcNo        4;
        neighbProcNo    5;
    }
)

// ************************************************************************* //
