/*--------------------------------*- C++ -*----------------------------------*\
| =========                 |                                                 |
| \\      /  F ield         | OpenFOAM: The Open Source CFD Toolbox           |
|  \\    /   O peration     | Version:  2406                                  |
|   \\  /    A nd           | Website:  www.openfoam.com                      |
|    \\/     M anipulation  |                                                 |
\*---------------------------------------------------------------------------*/
FoamFile
{
    version     2.0;
    format      ascii;
    arch        "LSB;label=32;scalar=64";
    class       polyBoundaryMesh;
    location    "constant/polyMesh";
    object      boundary;
}
// * * * * * * * * * * * * * * * * * * * * * * * * * * * * * * * * * * * * * //

7
(
    BLADES
    {
        type            wall;
        inGroups        1(wall);
        nFaces          4876;
        startFace       46455;
    }
    HUB_DISK
    {
        type            wall;
        inGroups        1(wall);
        nFaces          0;
        startFace       51331;
    }
    HUB
    {
        type            wall;
        inGroups        1(wall);
        nFaces          133;
        startFace       51331;
    }
    MRF_REGION
    {
        type            wall;
        inGroups        1(wall);
        nFaces          96;
        startFace       51464;
    }
    procBoundary2to1
    {
        type            processor;
        inGroups        1(processor);
        nFaces          7371;
        startFace       51560;
        matchTolerance  0.0001;
        transform       unknown;
        myProcNo        2;
        neighbProcNo    1;
    }
    procBoundary2to3
    {
        type            processor;
        inGroups        1(processor);
        nFaces          8285;
        startFace       58931;
        matchTolerance  0.0001;
        transform       unknown;
        myProcNo        2;
        neighbProcNo    3;
    }
    procBoundary2to4
    {
        type            processor;
        inGroups        1(processor);
        nFaces          241;
        startFace       67216;
        matchTolerance  0.0001;
        transform       unknown;
        myProcNo        2;
        neighbProcNo    4;
    }
)

// ************************************************************************* //
