/*--------------------------------*- C++ -*----------------------------------*\
| =========                 |                                                 |
| \\      /  F ield         | OpenFOAM: The Open Source CFD Toolbox           |
|  \\    /   O peration     | Version:  2406                                  |
|   \\  /    A nd           | Website:  www.openfoam.com                      |
|    \\/     M anipulation  |                                                 |
\*---------------------------------------------------------------------------*/
FoamFile
{
    version     2.0;
    format      ascii;
    arch        "LSB;label=32;scalar=64";
    class       polyBoundaryMesh;
    location    "constant/polyMesh";
    object      boundary;
}
// * * * * * * * * * * * * * * * * * * * * * * * * * * * * * * * * * * * * * //

5
(
    BLADES
    {
        type            wall;
        inGroups        1(wall);
        nFaces          1175;
        startFace       53491;
    }
    HUB_DISK
    {
        type            wall;
        inGroups        1(wall);
        nFaces          88;
        startFace       54666;
    }
    HUB
    {
        type            wall;
        inGroups        1(wall);
        nFaces          534;
        startFace       54754;
    }
    MRF_REGION
    {
        type            wall;
        inGroups        1(wall);
        nFaces          3928;
        startFace       55288;
    }
    procBoundary7to6
    {
        type            processor;
        inGroups        1(processor);
        nFaces          3083;
        startFace       59216;
        matchTolerance  0.0001;
        transform       unknown;
        myProcNo        7;
        neighbProcNo    6;
    }
)

// ************************************************************************* //
