/*--------------------------------*- C++ -*----------------------------------*\
| =========                 |                                                 |
| \\      /  F ield         | OpenFOAM: The Open Source CFD Toolbox           |
|  \\    /   O peration     | Version:  2406                                  |
|   \\  /    A nd           | Website:  www.openfoam.com                      |
|    \\/     M anipulation  |                                                 |
\*---------------------------------------------------------------------------*/
FoamFile
{
    version     2.0;
    format      ascii;
    arch        "LSB;label=32;scalar=64";
    class       polyBoundaryMesh;
    location    "constant/polyMesh";
    object      boundary;
}
// * * * * * * * * * * * * * * * * * * * * * * * * * * * * * * * * * * * * * //

6
(
    overset-1
    {
        type            overset;
        inGroups        1(overset);
        nFaces          832;
        startFace       134300;
    }
    HULL
    {
        type            wall;
        inGroups        1(wall);
        nFaces          5380;
        startFace       135132;
    }
    HULL_DISK
    {
        type            wall;
        inGroups        1(wall);
        nFaces          0;
        startFace       140512;
    }
    procBoundary5to3
    {
        type            processor;
        inGroups        1(processor);
        nFaces          190;
        startFace       140512;
        matchTolerance  0.0001;
        transform       unknown;
        myProcNo        5;
        neighbProcNo    3;
    }
    procBoundary5to4
    {
        type            processor;
        inGroups        1(processor);
        nFaces          5138;
        startFace       140702;
        matchTolerance  0.0001;
        transform       unknown;
        myProcNo        5;
        neighbProcNo    4;
    }
    procBoundary5to6
    {
        type            processor;
        inGroups        1(processor);
        nFaces          672;
        startFace       145840;
        matchTolerance  0.0001;
        transform       unknown;
        myProcNo        5;
        neighbProcNo    6;
    }
)

// ************************************************************************* //
