/*--------------------------------*- C++ -*----------------------------------*\
| =========                 |                                                 |
| \\      /  F ield         | OpenFOAM: The Open Source CFD Toolbox           |
|  \\    /   O peration     | Version:  2406                                  |
|   \\  /    A nd           | Website:  www.openfoam.com                      |
|    \\/     M anipulation  |                                                 |
\*---------------------------------------------------------------------------*/
FoamFile
{
    version     2.0;
    format      ascii;
    arch        "LSB;label=32;scalar=64";
    class       extendedFeatureEdgeMesh;
    location    "constant/extendedFeatureEdgeMesh";
    object      HULL.extendedFeatureEdgeMesh;
}
// * * * * * * * * * * * * * * * * * * * * * * * * * * * * * * * * * * * * * //

// points

800
(
(1.55955 0.5625 0.630277)
(-3.625 0.322408 0.630382)
(-3.625 -0.322408 0.630382)
(2.05604 0.562497 0.630385)
(-3.32084 0.00655846 0.0784387)
(2.14746 0.562448 0.630385)
(-3.32196 0.00621063 0.0798733)
(-3.32333 0.00587843 0.0815898)
(-3.3238 0.00582768 0.0821704)
(-3.32461 0.00583206 0.0832012)
(-3.32473 0.00584097 0.0833503)
(-3.3245 0.00582153 0.0830535)
(-3.3215 0.00634585 0.0793054)
(-3.3186 0.00699333 0.0750001)
(-3.31862 0.00693106 0.0750001)
(-3.31937 0.00691837 0.0763127)
(-3.32019 0.00676128 0.0775485)
(-3.3202 0.00674955 0.0775491)
(-3.32062 0.00664378 0.0781422)
(-3.31864 0.00689988 0.0750001)
(-3.31864 0.00688429 0.0750001)
(-3.32106 0.00648976 0.0787294)
(-3.32474 0.00581079 0.0833532)
(-3.32473 0.0058237 0.0833528)
(-3.3238 0.00581705 0.0821743)
(-3.31979 0.0068243 0.0769407)
(-3.31999 0.00679665 0.0772467)
(-3.32426 0.00580418 0.0827603)
(-3.32287 0.00596358 0.0810146)
(-3.31864 -0.00689988 0.0750001)
(-3.31864 -0.00688429 0.0750001)
(-3.32106 -0.00651421 0.0787243)
(-3.32151 -0.006363 0.0792995)
(-3.3215 -0.00634585 0.0793054)
(-3.32195 -0.00620092 0.0798773)
(-3.3238 -0.00581298 0.0821747)
(-3.32449 -0.00582965 0.0830517)
(-3.32473 -0.00584783 0.0833495)
(-3.32426 -0.00582523 0.0827549)
(-3.31862 -0.00693106 0.0750001)
(-3.32195 -0.00622487 0.0798691)
(-3.32287 -0.005955 0.0810187)
(-3.32497 -0.00585082 0.0836509)
(-1.37923 0.562356 0.0449723)
(-1.40184 0.561944 0.0448939)
(-3.31877 0.00648992 0.0749382)
(-3.31877 -0.00648992 0.0749382)
(-1.42366 -0.56129 0.0447745)
(-1.46522 -0.559355 0.0444651)
(-1.40184 -0.561944 0.0448945)
(-3.20329 2.71982e-05 0)
(-3.20329 0 0)
(2.1947 0.561556 0.0446733)
(2.15434 0.562255 0.0449094)
(2.17501 0.561958 0.0448063)
(2.13257 -0.562439 0.0449734)
(2.17501 -0.561958 0.0448044)
(2.15433 -0.562255 0.0449082)
(2.19469 -0.561554 0.0446666)
(-3.32473 -0.0058374 0.083351)
(-3.32461 -0.00583206 0.0832012)
(-3.32333 -0.00587011 0.0815936)
(-3.37323 0.0160442 0.142601)
(-3.37323 0.0152546 0.143528)
(-3.37323 0.0145872 0.144225)
(-3.37323 0.0206171 0.131369)
(-3.37323 0.0203916 0.133003)
(-3.37323 0.0196874 0.135736)
(-3.37323 0.0207 0.12955)
(-3.37323 0.0188975 0.137921)
(-3.37323 0.0180211 0.139735)
(-3.37323 0.0170176 0.141316)
(-3.37323 0.013906 0.14487)
(-3.37323 0.013004 0.145632)
(-3.37323 0.0117214 0.146608)
(-3.37323 0.010142 0.147615)
(-3.37323 0.00836127 0.148466)
(-3.37323 0.00624995 0.149229)
(-3.37323 0.0035834 0.149934)
(-3.37323 0.00191866 0.150165)
(-3.37323 9.79422e-30 0.15025)
(-3.37323 -0.0035834 0.149934)
(-3.37323 -0.00624995 0.149229)
(-3.37323 -0.00836127 0.148466)
(-3.37323 -0.00191866 0.150165)
(-3.37323 -0.0145872 0.144225)
(-3.37323 -0.0152546 0.143528)
(-3.37323 -0.013906 0.14487)
(-3.37323 -0.013004 0.145632)
(-3.37323 -0.0160442 0.142601)
(-3.37323 -0.0170176 0.141316)
(-3.37323 -0.0180211 0.139735)
(-3.37323 -0.0188975 0.137921)
(-3.37323 -0.0196874 0.135736)
(-3.37323 -0.0203916 0.133003)
(-3.37323 -0.0206171 0.131369)
(-3.37323 -0.0207 0.12955)
(-3.37323 -0.010142 0.147615)
(-3.37323 -0.0117214 0.146608)
(-3.37323 0.00358352 0.109166)
(-3.37323 0.00624978 0.109871)
(-3.37323 0.00836093 0.110635)
(-3.37323 0.0170173 0.117784)
(-3.37323 0.0180209 0.119365)
(-3.37323 0.0188975 0.121179)
(-3.37323 0.00191882 0.108935)
(-3.37323 5.87653e-29 0.10885)
(-3.37323 0.0160442 0.116499)
(-3.37323 0.0139062 0.11423)
(-3.37323 0.0145875 0.114875)
(-3.37323 0.0152547 0.115572)
(-3.37323 0.0130041 0.113468)
(-3.37323 0.0196876 0.123364)
(-3.37323 0.0203917 0.126096)
(-3.37323 0.0206171 0.12773)
(-3.37323 0.0117212 0.112492)
(-3.37323 0.0101417 0.111485)
(-3.37323 -0.0139062 0.11423)
(-3.37323 -0.0130041 0.113468)
(-3.37323 -0.0117212 0.112492)
(-3.37323 -0.0203917 0.126096)
(-3.37323 -0.0196876 0.123364)
(-3.37323 -0.0188975 0.121179)
(-3.37323 -0.0206171 0.12773)
(-3.37323 -0.0180209 0.119365)
(-3.37323 -0.0160442 0.116499)
(-3.37323 -0.0152547 0.115572)
(-3.37323 -0.0145875 0.114875)
(-3.37323 -0.00836093 0.110635)
(-3.37323 -0.00624978 0.109871)
(-3.37323 -0.00358352 0.109166)
(-3.37323 -0.00191882 0.108935)
(-3.37323 -0.0101417 0.111485)
(-3.37323 -0.0170173 0.117784)
(-3.37273 0.0207 0.12955)
(-3.37273 0.0206069 0.131512)
(-3.37273 0.0203278 0.133458)
(-3.37273 0.0198643 0.135372)
(-3.37273 0.0192196 0.137237)
(-3.37273 0.0183996 0.139034)
(-3.37273 0.0174157 0.140739)
(-3.37273 0.016273 0.142344)
(-3.37273 0.0149814 0.143835)
(-3.37273 0.0135552 0.145194)
(-3.37273 0.0120055 0.146413)
(-3.37273 0.0103453 0.147479)
(-3.37273 0.00859281 0.148382)
(-3.37273 0.0067665 0.149113)
(-3.37273 0.00487669 0.149667)
(-3.37273 0.00293691 0.150041)
(-3.37273 0.000972869 0.150227)
(-3.37273 -0.000972869 0.150227)
(-3.37273 -0.00293691 0.150041)
(-3.37273 -0.00487669 0.149667)
(-3.37273 -0.0067665 0.149113)
(-3.37273 -0.00859281 0.148382)
(-3.37273 -0.0103453 0.147479)
(-3.37273 -0.0120055 0.146413)
(-3.37273 -0.0135552 0.145194)
(-3.37273 -0.0149814 0.143835)
(-3.37273 -0.016273 0.142344)
(-3.37273 -0.0174157 0.140739)
(-3.37273 -0.0183996 0.139034)
(-3.37273 -0.0192196 0.137237)
(-3.37273 -0.0198643 0.135372)
(-3.37273 -0.0203278 0.133458)
(-3.37273 -0.0206069 0.131512)
(-3.37273 -0.0207 0.12955)
(-3.37273 -0.0206069 0.127588)
(-3.37273 -0.0203278 0.125642)
(-3.37273 -0.0198643 0.123728)
(-3.37273 -0.0192196 0.121863)
(-3.37273 -0.0183996 0.120066)
(-3.37273 -0.0174157 0.118361)
(-3.37273 -0.016273 0.116756)
(-3.37273 -0.0149814 0.115265)
(-3.37273 -0.0135552 0.113906)
(-3.37273 -0.0120055 0.112687)
(-3.37273 -0.0103453 0.111621)
(-3.37273 -0.00859281 0.110718)
(-3.37273 -0.0067665 0.109987)
(-3.37273 -0.00487669 0.109433)
(-3.37273 -0.00293691 0.109059)
(-3.37273 -0.000972869 0.108873)
(-3.37273 0.000972869 0.108873)
(-3.37273 0.00293691 0.109059)
(-3.37273 0.00487669 0.109433)
(-3.37273 0.0067665 0.109987)
(-3.37273 0.00859281 0.110718)
(-3.37273 0.0103453 0.111621)
(-3.37273 0.0120055 0.112687)
(-3.37273 0.0135552 0.113906)
(-3.37273 0.0149814 0.115265)
(-3.37273 0.016273 0.116756)
(-3.37273 0.0174157 0.118361)
(-3.37273 0.0183996 0.120066)
(-3.37273 0.0192196 0.121863)
(-3.37273 0.0198643 0.123728)
(-3.37273 0.0203278 0.125642)
(-3.37273 0.0206069 0.127588)
(2.09934 0.5625 0.630261)
(2.10964 0.5625 0.630385)
(-1.67923 0.5625 0.63037)
(-1.13943 0.5625 0.630354)
(-0.599638 0.5625 0.630339)
(-0.0598417 0.5625 0.630323)
(0.479954 0.5625 0.630308)
(1.01975 0.5625 0.630292)
(-2.21902 0.5625 0.630385)
(2.09935 -0.5625 0.630385)
(1.55955 -0.5625 0.630385)
(1.01975 -0.5625 0.630385)
(0.479957 -0.5625 0.630385)
(-0.0598392 -0.5625 0.630385)
(-0.599636 -0.5625 0.630385)
(-1.13943 -0.5625 0.630385)
(-1.67923 -0.5625 0.630385)
(-2.21902 -0.5625 0.630385)
(-3.625 0.322408 0.595347)
(-3.61016 0.327757 0.630381)
(-3.59494 0.333092 0.630381)
(-3.57937 0.33842 0.630381)
(-3.56348 0.343748 0.630381)
(-3.54729 0.349083 0.630381)
(-3.53085 0.354431 0.630381)
(-3.49732 0.36518 0.630381)
(-3.46319 0.376019 0.630381)
(-3.42868 0.386945 0.630382)
(-3.35922 0.408901 0.630383)
(-3.28958 0.430543 0.630384)
(-3.25466 0.441068 0.630384)
(-3.21959 0.451324 0.630385)
(-3.18428 0.461275 0.630385)
(-3.14862 0.470894 0.630385)
(-3.11251 0.480158 0.630385)
(-3.07584 0.489046 0.630385)
(-3.05727 0.493342 0.630385)
(-3.03853 0.497534 0.630385)
(-3.0196 0.50162 0.630385)
(-3.00047 0.505593 0.630385)
(-2.98115 0.509451 0.630385)
(-2.9616 0.513188 0.630385)
(-2.94183 0.516799 0.630385)
(-2.92183 0.520278 0.630385)
(-2.90157 0.523618 0.630385)
(-2.88106 0.526816 0.630385)
(-2.86027 0.529865 0.630385)
(-2.83918 0.532764 0.630386)
(-2.81775 0.53551 0.630386)
(-2.79597 0.538104 0.630386)
(-2.77377 0.540548 0.630386)
(-2.75112 0.542849 0.630386)
(-2.72794 0.545012 0.630386)
(-2.70416 0.547048 0.630387)
(-2.6797 0.548964 0.630387)
(-2.66718 0.54988 0.630387)
(-2.65445 0.550768 0.630387)
(-2.64149 0.55163 0.630387)
(-2.62829 0.552466 0.630387)
(-2.61483 0.553277 0.630387)
(-2.60109 0.554061 0.630387)
(-2.58705 0.55482 0.630387)
(-2.57268 0.555553 0.630386)
(-2.55797 0.556258 0.630386)
(-2.54289 0.556934 0.630386)
(-2.52742 0.55758 0.630386)
(-2.51152 0.558195 0.630386)
(-2.49516 0.558776 0.630386)
(-2.47832 0.55932 0.630386)
(-2.46095 0.559827 0.630386)
(-2.44301 0.560294 0.630386)
(-2.42445 0.560718 0.630385)
(-2.40522 0.5611 0.630385)
(-2.38527 0.561436 0.630385)
(-2.375 0.561587 0.630385)
(-2.36452 0.561726 0.630385)
(-2.35383 0.561853 0.630385)
(-2.34292 0.561969 0.630385)
(-2.33177 0.562073 0.630385)
(-2.32038 0.562166 0.630385)
(-2.30873 0.562246 0.630385)
(-2.29681 0.562315 0.630385)
(-2.28462 0.562373 0.630385)
(-2.27214 0.56242 0.630385)
(-2.25935 0.562455 0.630385)
(-2.24624 0.562481 0.630385)
(-2.23281 0.562495 0.630385)
(-3.625 0.272085 0.495994)
(-3.625 0.261839 0.488273)
(-3.625 0.321252 0.58257)
(-3.625 0.27703 0.50008)
(-3.625 0.281834 0.504332)
(-3.625 0.320398 0.576212)
(-3.625 0.286478 0.508758)
(-3.625 0.31932 0.569888)
(-3.625 0.317983 0.563612)
(-3.625 0.31635 0.557405)
(-3.625 0.314388 0.551296)
(-3.625 0.31207 0.545316)
(-3.625 0.309379 0.539493)
(-3.625 0.306321 0.533854)
(-3.625 0.302915 0.528419)
(-3.625 0.251208 0.481093)
(-3.625 0.299192 0.523195)
(-3.625 0.295187 0.518181)
(-3.625 0.290938 0.513371)
(-3.625 0.240271 0.474388)
(-3.625 0 0.630382)
(-3.625 0.229085 0.468109)
(-3.625 0.21769 0.462216)
(-3.625 0.20612 0.456672)
(-3.625 0.194403 0.451443)
(-3.625 0.182568 0.446492)
(-3.625 0.170638 0.441773)
(-3.625 0.146583 0.432852)
(-3.625 0.0981138 0.416008)
(-3.625 0.0495876 0.399328)
(-3.625 0.0374256 0.395248)
(-3.625 0.0251841 0.391414)
(-3.625 0.0189998 0.389712)
(-3.625 0.0127454 0.388289)
(-3.625 0.00640523 0.387312)
(-3.625 2.64698e-26 0.386963)
(2.10964 -0.5625 0.630385)
(-3.625 -0.0127454 0.388289)
(-3.625 -0.0189998 0.389712)
(-3.625 -0.00640523 0.387312)
(-3.625 -0.0251841 0.391414)
(-3.625 -0.0374256 0.395248)
(-3.625 -0.0495876 0.399328)
(-3.625 -0.0981138 0.416008)
(-3.625 -0.146583 0.432852)
(-3.625 -0.170638 0.441773)
(-3.625 -0.182568 0.446492)
(-3.625 -0.194403 0.451443)
(-3.625 -0.20612 0.456672)
(-3.625 -0.21769 0.462216)
(-3.625 -0.229085 0.468109)
(-3.625 -0.240271 0.474388)
(-3.625 -0.251208 0.481093)
(-3.625 -0.322408 0.595347)
(-3.625 -0.261839 0.488273)
(-3.625 -0.272085 0.495994)
(-3.625 -0.321252 0.58257)
(-3.625 -0.27703 0.50008)
(-3.625 -0.281834 0.504332)
(-3.625 -0.286478 0.508758)
(-3.625 -0.290938 0.513371)
(-3.625 -0.295187 0.518181)
(-3.625 -0.299192 0.523195)
(-3.625 -0.302915 0.528419)
(-3.625 -0.306321 0.533854)
(-3.625 -0.309379 0.539493)
(-3.625 -0.31207 0.545316)
(-3.625 -0.314388 0.551296)
(-3.625 -0.31635 0.557405)
(-3.625 -0.317983 0.563612)
(-3.625 -0.31932 0.569888)
(-3.625 -0.320398 0.576212)
(-3.61016 -0.327757 0.630381)
(-3.49732 -0.36518 0.630381)
(-3.53085 -0.354431 0.630381)
(-3.46319 -0.376019 0.630381)
(-2.64149 -0.55163 0.630387)
(-2.65445 -0.550768 0.630387)
(-2.66718 -0.54988 0.630387)
(-2.62829 -0.552466 0.630387)
(-2.23281 -0.562495 0.630385)
(-2.24624 -0.562481 0.630385)
(-2.25935 -0.562455 0.630385)
(-2.27214 -0.56242 0.630385)
(-2.28462 -0.562373 0.630385)
(-2.29681 -0.562315 0.630385)
(-2.30873 -0.562246 0.630385)
(-2.32038 -0.562166 0.630385)
(-2.33177 -0.562073 0.630385)
(-2.34292 -0.561969 0.630385)
(-2.35383 -0.561853 0.630385)
(-2.36452 -0.561726 0.630385)
(-2.375 -0.561587 0.630385)
(-2.38527 -0.561436 0.630385)
(-2.40522 -0.5611 0.630385)
(-2.42445 -0.560718 0.630385)
(-2.44301 -0.560294 0.630386)
(-2.46095 -0.559827 0.630386)
(-2.47832 -0.55932 0.630386)
(-2.49516 -0.558776 0.630386)
(-2.51152 -0.558195 0.630386)
(-2.52742 -0.55758 0.630386)
(-2.54289 -0.556934 0.630386)
(-2.55797 -0.556258 0.630386)
(-2.57268 -0.555553 0.630386)
(-2.58705 -0.55482 0.630387)
(-2.60109 -0.554061 0.630387)
(-2.61483 -0.553277 0.630387)
(-2.6797 -0.548964 0.630387)
(-2.70416 -0.547048 0.630387)
(-2.72794 -0.545012 0.630386)
(-2.75112 -0.542849 0.630386)
(-2.77377 -0.540548 0.630386)
(-2.79597 -0.538104 0.630386)
(-2.81775 -0.53551 0.630386)
(-2.83918 -0.532764 0.630386)
(-2.86027 -0.529865 0.630385)
(-2.88106 -0.526816 0.630385)
(-2.90157 -0.523618 0.630385)
(-2.92183 -0.520278 0.630385)
(-2.94183 -0.516799 0.630385)
(-2.9616 -0.513188 0.630385)
(-2.98115 -0.509451 0.630385)
(-3.00047 -0.505593 0.630385)
(-3.0196 -0.50162 0.630385)
(-3.03853 -0.497534 0.630385)
(-3.05727 -0.493342 0.630385)
(-3.07584 -0.489046 0.630385)
(-3.11251 -0.480158 0.630385)
(-3.14862 -0.470894 0.630385)
(-3.18428 -0.461275 0.630385)
(-3.21959 -0.451324 0.630385)
(-3.25466 -0.441068 0.630384)
(-3.28958 -0.430543 0.630384)
(-3.35922 -0.408901 0.630383)
(-3.42868 -0.386945 0.630382)
(-3.54729 -0.349083 0.630381)
(-3.56348 -0.343748 0.630381)
(-3.57937 -0.33842 0.630381)
(-3.59494 -0.333092 0.630381)
(3.602 -0.00564568 0.630385)
(3.6022 -6.13811e-20 0.630385)
(3.57838 -0.0747203 0.630385)
(3.58333 -0.0645615 0.630385)
(3.58799 -0.0542714 0.630385)
(2.41223 0.557956 0.630385)
(2.39332 0.558601 0.630385)
(2.37442 0.559184 0.630385)
(2.3366 0.560177 0.630385)
(2.29878 0.560961 0.630385)
(2.26095 0.561559 0.630385)
(2.08021 0.562494 0.630385)
(2.48781 0.55468 0.630385)
(2.45003 0.556465 0.630385)
(3.038 0.470437 0.630385)
(3.02895 0.47317 0.630385)
(3.01988 0.475844 0.630385)
(3.04704 0.467644 0.630385)
(3.1186 0.443092 0.630385)
(3.10973 0.446382 0.630385)
(3.10084 0.449607 0.630385)
(3.12744 0.439737 0.630385)
(3.19722 0.410519 0.630385)
(3.1886 0.414407 0.630385)
(3.17994 0.418226 0.630385)
(3.20581 0.406563 0.630385)
(3.27329 0.372379 0.630385)
(3.26499 0.376905 0.630385)
(3.25664 0.381358 0.630385)
(3.28155 0.367777 0.630385)
(3.364 0.315759 0.630385)
(3.35368 0.322951 0.630385)
(3.34325 0.329998 0.630385)
(3.37422 0.30842 0.630385)
(3.6005 0.0168382 0.630385)
(3.59928 0.0223536 0.630385)
(3.59781 0.0278078 0.630385)
(3.38433 0.30093 0.630385)
(3.39432 0.293288 0.630385)
(3.40419 0.28549 0.630385)
(3.41394 0.277532 0.630385)
(3.42355 0.269413 0.630385)
(3.4283 0.265291 0.630385)
(3.43302 0.261127 0.630385)
(3.43769 0.256922 0.630385)
(3.44233 0.252674 0.630385)
(3.44694 0.248384 0.630385)
(3.4515 0.244052 0.630385)
(3.45602 0.239678 0.630385)
(3.4605 0.235262 0.630385)
(3.46494 0.230804 0.630385)
(3.46933 0.226304 0.630385)
(3.478 0.217181 0.630385)
(3.33273 0.3369 0.630385)
(3.32212 0.343659 0.630385)
(3.31678 0.346986 0.630385)
(3.31142 0.350278 0.630385)
(3.30064 0.356757 0.630385)
(3.28977 0.363099 0.630385)
(3.24826 0.385737 0.630385)
(3.23984 0.390044 0.630385)
(3.23138 0.39428 0.630385)
(3.22289 0.398444 0.630385)
(3.21437 0.402538 0.630385)
(3.17126 0.421978 0.630385)
(3.16255 0.425663 0.630385)
(3.15381 0.42928 0.630385)
(3.14505 0.432832 0.630385)
(3.13626 0.436317 0.630385)
(3.09193 0.452769 0.630385)
(3.08299 0.455868 0.630385)
(3.07403 0.458905 0.630385)
(3.06506 0.461879 0.630385)
(3.05606 0.464792 0.630385)
(3.01079 0.478461 0.630385)
(3.00169 0.48102 0.630385)
(2.99257 0.483523 0.630385)
(2.98343 0.48597 0.630385)
(2.97428 0.488362 0.630385)
(2.95594 0.492982 0.630385)
(2.93754 0.497391 0.630385)
(2.9191 0.501593 0.630385)
(2.90061 0.505594 0.630385)
(2.86352 0.513021 0.630385)
(2.82629 0.519721 0.630385)
(2.78894 0.525746 0.630385)
(2.7515 0.53114 0.630385)
(2.71398 0.535948 0.630385)
(2.69519 0.538144 0.630385)
(2.67639 0.540209 0.630385)
(2.65757 0.542146 0.630385)
(2.63874 0.543962 0.630385)
(2.61991 0.545661 0.630385)
(2.60106 0.547249 0.630385)
(2.5822 0.548729 0.630385)
(2.56333 0.550106 0.630385)
(2.54446 0.551386 0.630385)
(2.52559 0.552572 0.630385)
(2.35551 0.559708 0.630385)
(2.18529 0.562285 0.630385)
(2.01016 0.562487 0.630385)
(2.82629 -0.519721 0.630385)
(2.86352 -0.513021 0.630385)
(2.65757 -0.542146 0.630385)
(2.67639 -0.540209 0.630385)
(2.69519 -0.538144 0.630385)
(3.56092 -0.106716 0.630385)
(3.56718 -0.0958069 0.630385)
(3.57023 -0.0903007 0.630385)
(3.54074 -0.138608 0.630385)
(3.54769 -0.128118 0.630385)
(3.55441 -0.117487 0.630385)
(3.53358 -0.148954 0.630385)
(3.52621 -0.159153 0.630385)
(3.51865 -0.169204 0.630385)
(3.51089 -0.179106 0.630385)
(3.4948 -0.198454 0.630385)
(3.50293 -0.188856 0.630385)
(3.48649 -0.207897 0.630385)
(3.478 -0.217181 0.630385)
(3.46933 -0.226304 0.630385)
(3.4605 -0.235262 0.630385)
(3.46494 -0.230804 0.630385)
(3.45602 -0.239678 0.630385)
(3.4515 -0.244052 0.630385)
(3.44694 -0.248384 0.630385)
(3.44233 -0.252674 0.630385)
(3.364 -0.315759 0.630385)
(3.37422 -0.30842 0.630385)
(3.38433 -0.30093 0.630385)
(3.32212 -0.343659 0.630385)
(3.33273 -0.3369 0.630385)
(3.34325 -0.329997 0.630385)
(3.27329 -0.372378 0.630385)
(3.28155 -0.367777 0.630385)
(3.28977 -0.363099 0.630385)
(3.26499 -0.376905 0.630385)
(3.1186 -0.443092 0.630385)
(3.12744 -0.439737 0.630385)
(3.03801 -0.470437 0.630385)
(3.04704 -0.467644 0.630385)
(3.05606 -0.464792 0.630385)
(2.97428 -0.488362 0.630385)
(2.98343 -0.48597 0.630385)
(3.00169 -0.48102 0.630385)
(3.01079 -0.478461 0.630385)
(3.01988 -0.475844 0.630385)
(2.48781 -0.55468 0.630385)
(2.52559 -0.552572 0.630385)
(2.56333 -0.550106 0.630385)
(2.5822 -0.548729 0.630385)
(2.60106 -0.547249 0.630385)
(2.37442 -0.559184 0.630385)
(2.39332 -0.558601 0.630385)
(2.29878 -0.560961 0.630385)
(2.3366 -0.560177 0.630385)
(2.35551 -0.559708 0.630385)
(2.26095 -0.561559 0.630385)
(2.18529 -0.562285 0.630385)
(2.41223 -0.557956 0.630385)
(2.45003 -0.556465 0.630385)
(2.54446 -0.551386 0.630385)
(2.61991 -0.545661 0.630385)
(2.63874 -0.543962 0.630385)
(2.71398 -0.535948 0.630385)
(2.7515 -0.53114 0.630385)
(2.78894 -0.525746 0.630385)
(2.95594 -0.492982 0.630385)
(2.93754 -0.497391 0.630385)
(2.99257 -0.483523 0.630385)
(3.02895 -0.47317 0.630385)
(3.06506 -0.461879 0.630385)
(3.07403 -0.458905 0.630385)
(3.08299 -0.455868 0.630385)
(3.09193 -0.452769 0.630385)
(3.10084 -0.449607 0.630385)
(3.10973 -0.446382 0.630385)
(3.20581 -0.406563 0.630385)
(3.21437 -0.402538 0.630385)
(3.22289 -0.398444 0.630385)
(3.19722 -0.410519 0.630385)
(3.13626 -0.436317 0.630385)
(3.14505 -0.432832 0.630385)
(3.15381 -0.42928 0.630385)
(3.16255 -0.425662 0.630385)
(3.17126 -0.421978 0.630385)
(3.17994 -0.418226 0.630385)
(3.1886 -0.414407 0.630385)
(3.23138 -0.39428 0.630385)
(3.23984 -0.390044 0.630385)
(3.24826 -0.385737 0.630385)
(3.25664 -0.381358 0.630385)
(3.30064 -0.356757 0.630385)
(3.31142 -0.350278 0.630385)
(3.31678 -0.346986 0.630385)
(3.35368 -0.322951 0.630385)
(3.39432 -0.293288 0.630385)
(3.40419 -0.28549 0.630385)
(3.41394 -0.277532 0.630385)
(3.42355 -0.269413 0.630385)
(3.4283 -0.265291 0.630385)
(3.43302 -0.261127 0.630385)
(3.43769 -0.256922 0.630385)
(3.5732 -0.0847599 0.630385)
(3.5923 -0.0438288 0.630385)
(3.59613 -0.0332022 0.630385)
(3.59781 -0.0278077 0.630385)
(3.59928 -0.0223536 0.630385)
(3.6005 -0.0168382 0.630385)
(3.60142 -0.0112651 0.630385)
(2.9191 -0.501593 0.630385)
(2.90061 -0.505594 0.630385)
(3.602 0.00564569 0.630385)
(3.60142 0.0112652 0.630385)
(3.59613 0.0332022 0.630385)
(3.5923 0.0438289 0.630385)
(3.58799 0.0542715 0.630385)
(3.58333 0.0645616 0.630385)
(3.57838 0.0747204 0.630385)
(3.5732 0.0847601 0.630385)
(3.57022 0.0903009 0.630385)
(3.51865 0.169204 0.630385)
(3.51089 0.179106 0.630385)
(3.50293 0.188856 0.630385)
(3.54769 0.128118 0.630385)
(3.54074 0.138608 0.630385)
(3.53358 0.148954 0.630385)
(3.56092 0.106716 0.630385)
(3.55441 0.117487 0.630385)
(3.56718 0.0958071 0.630385)
(3.52621 0.159153 0.630385)
(3.48649 0.207897 0.630385)
(3.4948 0.198454 0.630385)
(-3.30829 0.024253 0.0935239)
(-3.30823 0.0234515 0.0900352)
(-3.30823 0.0247161 0.0955912)
(-3.30829 -0.024253 0.0935239)
(-3.30823 -0.0234515 0.0900352)
(-3.30823 -0.0247161 0.0955912)
(-3.31863 0.00691548 0.0750001)
(-3.32019 0.00677642 0.0775487)
(-3.31865 0.00686868 0.0750001)
(-3.32497 0.00585082 0.0836509)
(-3.3252 0.00587795 0.0839502)
(-3.31939 0.00688716 0.0763127)
(-3.3238 0.00580025 0.0821753)
(-3.32403 0.00580589 0.0824665)
(-3.32569 0.00590836 0.0845499)
(-3.3252 0.0058913 0.0839496)
(-3.3245 0.00581083 0.0830558)
(-3.32485 0.00584133 0.0835013)
(-3.32063 0.00662336 0.0781457)
(-3.32173 0.00628843 0.0795856)
(-3.32106 0.00651051 0.0787244)
(-3.3215 0.0063705 0.0792987)
(-3.31865 -0.00686868 0.0750001)
(-3.32062 -0.00664754 0.0781422)
(-3.32173 -0.00627323 0.0795915)
(-3.3245 -0.00581083 0.0830558)
(-3.32474 -0.00581079 0.0833532)
(-3.32485 -0.00584832 0.0835002)
(-3.3202 -0.00675156 0.0775489)
(-3.31978 -0.00684798 0.0769397)
(-3.31863 -0.00691548 0.0750001)
(-3.31939 -0.00688716 0.0763127)
(-3.31979 -0.0068243 0.0769407)
(-3.32196 -0.00621286 0.0798723)
(-3.32173 -0.00628413 0.0795872)
(-3.32438 -0.00582416 0.0829034)
(-3.32287 -0.00596579 0.0810135)
(-3.3252 -0.00588289 0.0839501)
(-3.3238 -0.00584078 0.0821667)
(-1.43429 0.56088 0.0446993)
(-1.44482 0.560421 0.0446518)
(-1.42374 0.561292 0.0448076)
(-1.36762 0.562463 0.0449931)
(-1.35579 0.5625 0.0450021)
(-1.39064 0.562182 0.044939)
(-3.31795 0.00833573 0.0750001)
(-3.31722 0.00952468 0.0749398)
(-3.31682 0.010188 0.0750001)
(-3.31552 0.0119188 0.0750001)
(-3.31503 0.0124614 0.0749416)
(-3.31407 0.013535 0.0750001)
(-3.31089 0.0164725 0.0750002)
(-3.31219 0.0153255 0.0749438)
(-3.30744 0.0191005 0.0750002)
(-3.30873 0.0181385 0.0749461)
(-3.30565 0.0203252 0.0750002)
(-3.30472 0.0209179 0.0749486)
(-3.30198 0.0226361 0.0750001)
(-3.30018 0.0236782 0.0749512)
(-1.41284 0.561646 0.0448378)
(-1.42366 0.56129 0.0447745)
(-3.30251 0.000793967 0.221335)
(-3.30248 0.000807836 0.213547)
(-3.30198 -0.0226361 0.0750001)
(-3.30018 -0.0236782 0.0749512)
(-3.30472 -0.0209179 0.0749486)
(-3.30565 -0.0203252 0.0750002)
(-3.30744 -0.0191005 0.0750002)
(-3.30873 -0.0181385 0.0749461)
(-3.31219 -0.0153255 0.0749438)
(-3.31089 -0.0164725 0.0750002)
(-3.31407 -0.013535 0.0750001)
(-3.31503 -0.0124614 0.0749416)
(-3.31552 -0.0119188 0.0750001)
(-3.31682 -0.010188 0.0750001)
(-3.31722 -0.00952468 0.0749398)
(-3.31795 -0.00833573 0.0750001)
(-3.3186 -0.00699333 0.0750001)
(-1.43429 -0.56088 0.0446993)
(-1.44476 -0.560419 0.0446239)
(-1.44482 -0.560421 0.0446518)
(-1.45504 -0.559909 0.0445329)
(-1.41284 -0.561646 0.0448384)
(-1.39064 -0.562182 0.044939)
(-1.37923 -0.562356 0.0449724)
(-1.47511 -0.558751 0.04433)
(-1.48497 -0.558114 0.0442528)
(2.24856 0.559783 0.0440891)
(2.23148 0.560471 0.0443778)
(2.26509 0.559035 0.043892)
(2.22252 0.560767 0.0444051)
(2.23141 0.560463 0.0443165)
(2.21346 0.561053 0.0444989)
(2.20418 0.561315 0.0445862)
(2.18497 0.561769 0.0447395)
(2.12695 0.562466 0.0449831)
(2.12126 0.562485 0.0449998)
(2.13257 0.562439 0.0449735)
(2.1436 0.562362 0.0449461)
(2.13258 0.562439 0.0449836)
(2.1648 0.56212 0.0448609)
(2.12126 -0.562485 0.0449901)
(2.12695 -0.562466 0.0449831)
(2.1648 -0.56212 0.0448609)
(2.18497 -0.561769 0.0447395)
(2.20418 -0.561315 0.0445862)
(2.21346 -0.561053 0.0444989)
(2.22252 -0.560767 0.0444051)
(2.23141 -0.560463 0.0443165)
(2.24856 -0.559783 0.0440891)
(2.23143 -0.560465 0.0443324)
(2.26509 -0.559035 0.043892)
(2.1436 -0.562362 0.0449459)
(-3.32472 0.0058511 0.0833493)
(-3.32484 0.00585528 0.0834992)
(-3.32041 0.00668945 0.0778488)
(-3.32062 0.00663374 0.0781436)
(-3.32173 0.00627323 0.0795915)
(-3.3202 0.00672967 0.0775509)
(-3.31999 0.0067846 0.0772477)
(-3.32041 0.00669967 0.0778473)
(-3.32196 0.00618104 0.0798786)
(-3.32128 0.00641846 0.0790181)
(-3.32461 0.00582123 0.0832036)
(-3.31978 0.00683626 0.07694)
(-3.31978 0.00684798 0.0769397)
(-3.32173 -0.00629434 0.0795844)
(-3.32496 -0.00586106 0.0836498)
(-3.32062 -0.00662744 0.0781449)
(-3.32084 -0.00655648 0.078439)
(-3.32041 -0.00668333 0.0778498)
(-3.32473 -0.0058237 0.0833528)
(-3.32461 -0.00582123 0.0832036)
(-3.32128 -0.00641461 0.0790188)
(-3.32106 -0.00648225 0.0787301)
(-3.31978 -0.00683626 0.07694)
(-3.32128 -0.00643344 0.0790134)
(-3.31999 -0.00679262 0.077247)
(-3.20329 4.11978e-05 0)
(-3.20329 1.34649e-05 0)
)

// edges

831
(
(200 201)
(202 203)
(203 204)
(205 206)
(206 207)
(207 0)
(204 205)
(208 202)
(209 210)
(210 211)
(211 212)
(212 213)
(213 214)
(214 215)
(215 216)
(216 217)
(218 1)
(1 219)
(219 220)
(220 221)
(221 222)
(222 223)
(223 224)
(224 225)
(225 226)
(226 227)
(227 228)
(228 229)
(229 230)
(230 231)
(231 232)
(232 233)
(233 234)
(234 235)
(235 236)
(236 237)
(237 238)
(238 239)
(239 240)
(240 241)
(241 242)
(242 243)
(243 244)
(244 245)
(245 246)
(246 247)
(247 248)
(248 249)
(249 250)
(250 251)
(251 252)
(252 253)
(253 254)
(254 255)
(255 256)
(256 257)
(257 258)
(258 259)
(259 260)
(260 261)
(261 262)
(262 263)
(263 264)
(264 265)
(265 266)
(266 267)
(267 268)
(268 269)
(269 270)
(270 271)
(271 272)
(272 273)
(273 274)
(274 275)
(275 276)
(276 277)
(277 278)
(278 279)
(279 280)
(280 281)
(281 282)
(282 283)
(283 284)
(284 285)
(285 286)
(286 208)
(287 288)
(218 289)
(290 287)
(291 290)
(289 292)
(293 291)
(292 294)
(294 295)
(295 296)
(296 297)
(297 298)
(299 300)
(298 299)
(300 301)
(288 302)
(301 303)
(303 304)
(304 305)
(305 293)
(302 306)
(307 1)
(306 308)
(308 309)
(309 310)
(310 311)
(311 312)
(312 313)
(313 314)
(314 315)
(315 316)
(316 317)
(317 318)
(318 319)
(319 320)
(321 322)
(320 321)
(323 209)
(324 325)
(326 324)
(322 326)
(325 327)
(327 328)
(328 329)
(329 330)
(330 331)
(331 332)
(332 333)
(333 334)
(334 335)
(335 336)
(336 337)
(337 338)
(2 307)
(338 339)
(340 2)
(339 341)
(341 342)
(343 340)
(342 344)
(344 345)
(345 346)
(346 347)
(347 348)
(348 349)
(349 350)
(350 351)
(352 353)
(351 352)
(353 354)
(354 355)
(355 356)
(356 357)
(357 358)
(358 343)
(359 2)
(360 361)
(362 360)
(363 364)
(364 365)
(366 363)
(217 367)
(367 368)
(368 369)
(369 370)
(370 371)
(371 372)
(372 373)
(373 374)
(374 375)
(375 376)
(376 377)
(377 378)
(378 379)
(379 380)
(380 381)
(381 382)
(382 383)
(383 384)
(384 385)
(385 386)
(386 387)
(387 388)
(388 389)
(389 390)
(390 391)
(391 392)
(392 393)
(393 394)
(394 366)
(365 395)
(395 396)
(396 397)
(397 398)
(398 399)
(399 400)
(400 401)
(401 402)
(402 403)
(403 404)
(404 405)
(405 406)
(406 407)
(407 408)
(408 409)
(409 410)
(410 411)
(411 412)
(412 413)
(413 414)
(414 415)
(415 416)
(416 417)
(417 418)
(418 419)
(419 420)
(420 421)
(421 422)
(422 362)
(361 423)
(423 424)
(424 425)
(425 426)
(426 359)
(427 428)
(429 430)
(430 431)
(432 433)
(433 434)
(435 436)
(436 437)
(438 3)
(438 5)
(5 201)
(439 440)
(440 432)
(441 442)
(442 443)
(444 441)
(445 446)
(446 447)
(448 445)
(449 450)
(450 451)
(452 449)
(453 454)
(454 455)
(456 453)
(457 458)
(458 459)
(460 457)
(461 462)
(462 463)
(464 460)
(465 464)
(466 465)
(467 466)
(468 467)
(469 468)
(470 469)
(471 470)
(472 471)
(473 472)
(474 473)
(475 474)
(476 475)
(477 476)
(478 477)
(479 478)
(459 480)
(480 481)
(481 482)
(482 483)
(483 484)
(484 485)
(485 456)
(455 486)
(486 487)
(487 488)
(488 489)
(489 490)
(490 452)
(451 491)
(491 492)
(492 493)
(493 494)
(494 495)
(495 448)
(447 496)
(496 497)
(497 498)
(498 499)
(499 500)
(500 444)
(443 501)
(501 502)
(502 503)
(503 504)
(504 505)
(505 506)
(506 507)
(507 508)
(508 509)
(509 510)
(510 511)
(511 512)
(512 513)
(513 514)
(514 515)
(515 516)
(516 517)
(517 518)
(518 519)
(519 520)
(520 521)
(521 522)
(522 523)
(523 524)
(524 439)
(434 525)
(525 435)
(437 526)
(526 5)
(0 3)
(527 0)
(528 529)
(530 531)
(531 532)
(533 534)
(534 535)
(536 537)
(537 538)
(539 536)
(540 539)
(541 540)
(542 541)
(543 544)
(544 542)
(545 543)
(546 545)
(547 546)
(548 549)
(549 547)
(550 548)
(551 550)
(552 551)
(553 552)
(554 555)
(555 556)
(557 558)
(558 559)
(560 561)
(561 562)
(563 560)
(564 565)
(566 567)
(567 568)
(569 570)
(571 572)
(572 573)
(574 575)
(576 577)
(577 578)
(579 580)
(581 582)
(582 583)
(584 581)
(323 585)
(585 584)
(583 579)
(580 586)
(587 574)
(588 576)
(575 588)
(578 589)
(589 590)
(590 530)
(532 591)
(591 592)
(592 593)
(593 528)
(594 569)
(595 594)
(596 571)
(570 596)
(573 597)
(597 566)
(568 598)
(598 599)
(599 600)
(600 601)
(601 602)
(602 603)
(603 564)
(604 605)
(605 606)
(607 604)
(565 608)
(609 610)
(610 611)
(611 612)
(612 613)
(613 614)
(614 607)
(606 615)
(615 616)
(616 617)
(617 618)
(618 563)
(562 619)
(619 620)
(620 621)
(621 557)
(559 622)
(622 554)
(556 623)
(623 624)
(624 625)
(625 626)
(626 627)
(627 628)
(628 629)
(629 553)
(538 533)
(535 630)
(630 429)
(431 631)
(631 632)
(632 633)
(633 634)
(634 635)
(635 636)
(636 427)
(586 587)
(637 595)
(529 638)
(638 637)
(608 609)
(428 639)
(639 640)
(640 461)
(463 641)
(641 642)
(642 643)
(643 644)
(644 645)
(645 646)
(646 647)
(648 649)
(649 650)
(651 652)
(652 653)
(654 655)
(655 651)
(656 654)
(647 656)
(653 657)
(657 648)
(658 479)
(650 659)
(659 658)
(527 3)
(660 661)
(662 660)
(663 664)
(665 663)
(12 6)
(14 666)
(13 667)
(15 16)
(666 19)
(20 668)
(669 23)
(670 669)
(17 26)
(25 671)
(672 22)
(27 673)
(673 24)
(674 675)
(676 22)
(677 10)
(7 24)
(23 11)
(21 678)
(679 6)
(25 26)
(18 680)
(680 681)
(682 30)
(31 683)
(684 33)
(684 34)
(685 686)
(38 37)
(32 31)
(687 37)
(688 689)
(29 690)
(690 39)
(691 692)
(693 694)
(38 695)
(693 696)
(42 687)
(697 42)
(42 686)
(695 36)
(40 32)
(698 40)
(683 688)
(699 700)
(701 699)
(702 43)
(703 702)
(704 44)
(43 704)
(668 45)
(19 45)
(13 45)
(705 706)
(707 706)
(708 709)
(710 709)
(711 712)
(713 714)
(715 716)
(717 716)
(717 718)
(719 720)
(44 719)
(721 722)
(723 724)
(723 725)
(726 725)
(727 728)
(729 730)
(731 732)
(733 732)
(734 735)
(736 735)
(737 46)
(29 46)
(682 46)
(738 739)
(740 741)
(48 741)
(742 49)
(47 742)
(743 744)
(49 743)
(738 47)
(48 745)
(746 745)
(747 748)
(749 747)
(750 751)
(750 752)