/*--------------------------------*- C++ -*----------------------------------*\
| =========                 |                                                 |
| \\      /  F ield         | OpenFOAM: The Open Source CFD Toolbox           |
|  \\    /   O peration     | Version:  2406                                  |
|   \\  /    A nd           | Website:  www.openfoam.com                      |
|    \\/     M anipulation  |                                                 |
\*---------------------------------------------------------------------------*/
FoamFile
{
    version     2.0;
    format      ascii;
    arch        "LSB;label=32;scalar=64";
    class       featureEdgeMesh;
    location    "constant/triSurface";
    object      HUB.eMesh;
}
// * * * * * * * * * * * * * * * * * * * * * * * * * * * * * * * * * * * * * //


// points:

66
(
(-3.39743 0.0207 0.12955)
(-3.39743 0.0206069 0.131512)
(-3.39743 0.0203278 0.133458)
(-3.39743 0.0198643 0.135372)
(-3.39743 0.0192196 0.137237)
(-3.39743 0.0183996 0.139034)
(-3.39743 0.0174157 0.140739)
(-3.39743 0.016273 0.142344)
(-3.39743 0.0149814 0.143835)
(-3.39743 0.0135552 0.145194)
(-3.39743 0.0120055 0.146413)
(-3.39743 0.0103453 0.147479)
(-3.39743 0.00859281 0.148382)
(-3.39743 0.0067665 0.149113)
(-3.39743 0.00487669 0.149667)
(-3.39743 0.00293691 0.150041)
(-3.39743 0.000972869 0.150227)
(-3.39743 -0.000972869 0.150227)
(-3.39743 -0.00293691 0.150041)
(-3.39743 -0.00487669 0.149667)
(-3.39743 -0.0067665 0.149113)
(-3.39743 -0.00859281 0.148382)
(-3.39743 -0.0103453 0.147479)
(-3.39743 -0.0120055 0.146413)
(-3.39743 -0.0135552 0.145194)
(-3.39743 -0.0149814 0.143835)
(-3.39743 -0.016273 0.142344)
(-3.39743 -0.0174157 0.140739)
(-3.39743 -0.0183996 0.139034)
(-3.39743 -0.0192196 0.137237)
(-3.39743 -0.0198643 0.135372)
(-3.39743 -0.0203278 0.133458)
(-3.39743 -0.0206069 0.131512)
(-3.39743 -0.0207 0.12955)
(-3.39743 -0.0206069 0.127588)
(-3.39743 -0.0203278 0.125642)
(-3.39743 -0.0198643 0.123728)
(-3.39743 -0.0192196 0.121863)
(-3.39743 -0.0183996 0.120066)
(-3.39743 -0.0174157 0.118361)
(-3.39743 -0.016273 0.116756)
(-3.39743 -0.0149814 0.115265)
(-3.39743 -0.0135552 0.113906)
(-3.39743 -0.0120055 0.112687)
(-3.39743 -0.0103453 0.111621)
(-3.39743 -0.00859281 0.110718)
(-3.39743 -0.0067665 0.109987)
(-3.39743 -0.00487669 0.109433)
(-3.39743 -0.00293691 0.109059)
(-3.39743 -0.000972869 0.108873)
(-3.39743 0.000972869 0.108873)
(-3.39743 0.00293691 0.109059)
(-3.39743 0.00487669 0.109433)
(-3.39743 0.0067665 0.109987)
(-3.39743 0.00859281 0.110718)
(-3.39743 0.0103453 0.111621)
(-3.39743 0.0120055 0.112687)
(-3.39743 0.0135552 0.113906)
(-3.39743 0.0149814 0.115265)
(-3.39743 0.016273 0.116756)
(-3.39743 0.0174157 0.118361)
(-3.39743 0.0183996 0.120066)
(-3.39743 0.0192196 0.121863)
(-3.39743 0.0198643 0.123728)
(-3.39743 0.0203278 0.125642)
(-3.39743 0.0206069 0.127588)
)


// edges:

66
(
(0 1)
(1 2)
(2 3)
(3 4)
(4 5)
(5 6)
(6 7)
(7 8)
(8 9)
(9 10)
(10 11)
(11 12)
(12 13)
(13 14)
(14 15)
(15 16)
(16 17)
(17 18)
(18 19)
(19 20)
(20 21)
(21 22)
(22 23)
(23 24)
(24 25)
(25 26)
(26 27)
(27 28)
(28 29)
(29 30)
(30 31)
(31 32)
(32 33)
(33 34)
(34 35)
(35 36)
(36 37)
(37 38)
(38 39)
(39 40)
(40 41)
(41 42)
(42 43)
(43 44)
(44 45)
(45 46)
(46 47)
(47 48)
(48 49)
(49 50)
(50 51)
(51 52)
(52 53)
(53 54)
(54 55)
(55 56)
(56 57)
(57 58)
(58 59)
(59 60)
(60 61)
(61 62)
(62 63)
(63 64)
(64 65)
(65 0)
)

// * * * * * * * * * * * * * * * * * * * * * * * * * * * * * * * * * * * * * //


// ************************************************************************* //
