/*--------------------------------*- C++ -*----------------------------------*\
| =========                 |                                                 |
| \\      /  F ield         | OpenFOAM: The Open Source CFD Toolbox           |
|  \\    /   O peration     | Version:  2406                                  |
|   \\  /    A nd           | Website:  www.openfoam.com                      |
|    \\/     M anipulation  |                                                 |
\*---------------------------------------------------------------------------*/
FoamFile
{
    version     2.0;
    format      ascii;
    arch        "LSB;label=32;scalar=64";
    class       featureEdgeMesh;
    location    "constant/triSurface";
    object      MRF_REGION.eMesh;
}
// * * * * * * * * * * * * * * * * * * * * * * * * * * * * * * * * * * * * * //


// points:

142
(
(-3.51377 -0.0626291 0.224699)
(-3.51377 -0.0706799 0.218882)
(-3.51377 -0.0781932 0.212386)
(-3.51377 -0.0851117 0.20526)
(-3.51377 -0.0913827 0.197558)
(-3.51377 -0.0969586 0.189338)
(-3.51377 -0.101797 0.180664)
(-3.51377 -0.105861 0.171602)
(-3.51377 -0.109119 0.162219)
(-3.51377 -0.111548 0.152588)
(-3.51377 -0.113128 0.142783)
(-3.51377 -0.113847 0.132877)
(-3.51377 -0.1137 0.122945)
(-3.51377 -0.112688 0.113065)
(-3.51377 -0.110819 0.10331)
(-3.51377 -0.108107 0.0937554)
(-3.51377 -0.104572 0.0844732)
(-3.51377 -0.100242 0.0755349)
(-3.51377 -0.0951476 0.0670085)
(-3.51377 -0.0893296 0.0589587)
(-3.51377 -0.082833 0.0514459)
(-3.51377 -0.0757076 0.0445266)
(-3.51377 -0.0680067 0.0382539)
(-3.51377 -0.0597881 0.0326769)
(-3.51377 -0.0511138 0.027839)
(-3.51377 -0.0420504 0.0237767)
(-3.51377 -0.0326677 0.0205186)
(-3.51377 -0.0230372 0.0180892)
(-3.51377 -0.0132314 0.0165097)
(-3.51377 -0.00332516 0.0157924)
(-3.51377 0.00660595 0.0159404)
(-3.51377 0.0164866 0.0169515)
(-3.51377 0.0262414 0.0188202)
(-3.51377 0.0357957 0.0215337)
(-3.51377 0.0450773 0.0250693)
(-3.51377 0.0540164 0.0293984)
(-3.51377 0.0625288 0.0345114)
(-3.51377 0.0705965 0.0403044)
(-3.51377 0.0781092 0.0468011)
(-3.51377 0.0850255 0.0539293)
(-3.51377 0.0912938 0.0616335)
(-3.51377 0.0968683 0.0698538)
(-3.51377 0.101708 0.0785272)
(-3.51377 0.105774 0.087589)
(-3.51377 0.109032 0.0969712)
(-3.51377 0.11146 0.106602)
(-3.51377 0.11304 0.116408)
(-3.51377 0.113759 0.126314)
(-3.51377 0.113612 0.136245)
(-3.51377 0.112599 0.146125)
(-3.51377 0.11073 0.155879)
(-3.51377 0.108018 0.165433)
(-3.51377 0.104483 0.174714)
(-3.51377 0.100153 0.183652)
(-3.51377 0.0950607 0.192179)
(-3.51377 0.0892442 0.20023)
(-3.51377 0.0827481 0.207743)
(-3.51377 0.0756219 0.214662)
(-3.51377 0.0679198 0.220933)
(-3.51377 0.0597005 0.226508)
(-3.51377 0.0510265 0.231347)
(-3.51377 0.0419639 0.235411)
(-3.51377 0.0325815 0.238669)
(-3.51377 0.0229508 0.241098)
(-3.51377 0.0131452 0.242678)
(-3.51377 0.00323911 0.243397)
(-3.51377 -0.00669193 0.24325)
(-3.51377 -0.0165724 0.242238)
(-3.51377 -0.026327 0.240369)
(-3.51377 -0.0358817 0.237657)
(-3.51377 -0.0451635 0.234122)
(-3.51377 -0.054102 0.229792)
(-3.38256 -0.0626293 0.224699)
(-3.38256 -0.0708511 0.218711)
(-3.38256 -0.0785232 0.212035)
(-3.38256 -0.0855689 0.204701)
(-3.38256 -0.0919318 0.196767)
(-3.38256 -0.0975611 0.188297)
(-3.38256 -0.102412 0.179358)
(-3.38256 -0.106446 0.170022)
(-3.38256 -0.10963 0.160363)
(-3.38256 -0.111939 0.150459)
(-3.38256 -0.113356 0.140388)
(-3.38256 -0.113867 0.13023)
(-3.38256 -0.11347 0.120068)
(-3.38256 -0.112168 0.109981)
(-3.38256 -0.109972 0.10005)
(-3.38256 -0.106897 0.0903557)
(-3.38256 -0.102968 0.0809745)
(-3.38256 -0.098217 0.0719813)
(-3.38256 -0.0926828 0.0634477)
(-3.38256 -0.0864098 0.0554412)
(-3.38256 -0.0794482 0.0480255)
(-3.38256 -0.0718066 0.0412202)
(-3.38256 -0.0635854 0.0351282)
(-3.38256 -0.0548493 0.0298)
(-3.38256 -0.0456656 0.025287)
(-3.38256 -0.036114 0.0216171)
(-3.38256 -0.0262723 0.0188176)
(-3.38256 -0.0162193 0.0169131)
(-3.38256 -0.0060361 0.0159198)
(-3.38256 0.00419495 0.0158439)
(-3.38256 0.0143914 0.0166851)
(-3.38256 0.024471 0.0184385)
(-3.38256 0.0343518 0.0210915)
(-3.38256 0.0439547 0.0246203)
(-3.38256 0.0532031 0.0289943)
(-3.38256 0.0620222 0.0341797)
(-3.38256 0.0703395 0.0401366)
(-3.38256 0.0780869 0.046818)
(-3.38256 0.0852018 0.0541693)
(-3.38256 0.0916281 0.0621297)
(-3.38256 0.0973157 0.0706337)
(-3.38256 0.10222 0.0796127)
(-3.38256 0.106298 0.0889955)
(-3.38256 0.109516 0.0987073)
(-3.38256 0.111849 0.108669)
(-3.38256 0.113279 0.1188)
(-3.38256 0.113793 0.129019)
(-3.38256 0.113387 0.139243)
(-3.38256 0.112065 0.14939)
(-3.38256 0.109837 0.159377)
(-3.38256 0.106722 0.169124)
(-3.38256 0.102741 0.17855)
(-3.38256 0.0979275 0.18758)
(-3.38256 0.0923231 0.196141)
(-3.38256 0.0859729 0.204164)
(-3.38256 0.0789281 0.211585)
(-3.38256 0.0712458 0.218343)
(-3.38256 0.062988 0.224384)
(-3.38256 0.0542213 0.229659)
(-3.38256 0.0450165 0.234126)
(-3.38256 0.0354481 0.237748)
(-3.38256 0.0255932 0.240497)
(-3.38256 0.0155314 0.24235)
(-3.38256 0.00534409 0.243292)
(-3.38256 -0.00488661 0.243315)
(-3.38256 -0.015078 0.24242)
(-3.38256 -0.0251479 0.240614)
(-3.38256 -0.0350149 0.237911)
(-3.38256 -0.0445994 0.234333)
(-3.38256 -0.0538239 0.229909)
)


// edges:

142
(
(0 1)
(1 2)
(2 3)
(3 4)
(4 5)
(5 6)
(6 7)
(7 8)
(8 9)
(9 10)
(10 11)
(11 12)
(12 13)
(13 14)
(14 15)
(15 16)
(16 17)
(17 18)
(18 19)
(19 20)
(20 21)
(21 22)
(22 23)
(23 24)
(24 25)
(25 26)
(26 27)
(27 28)
(28 29)
(29 30)
(30 31)
(31 32)
(32 33)
(33 34)
(34 35)
(35 36)
(36 37)
(37 38)
(38 39)
(39 40)
(40 41)
(41 42)
(42 43)
(43 44)
(44 45)
(45 46)
(46 47)
(47 48)
(48 49)
(49 50)
(50 51)
(51 52)
(52 53)
(53 54)
(54 55)
(55 56)
(56 57)
(57 58)
(58 59)
(59 60)
(60 61)
(61 62)
(62 63)
(63 64)
(64 65)
(65 66)
(66 67)
(67 68)
(68 69)
(69 70)
(70 71)
(71 0)
(72 73)
(73 74)
(74 75)
(75 76)
(76 77)
(77 78)
(78 79)
(79 80)
(80 81)
(81 82)
(82 83)
(83 84)
(84 85)
(85 86)
(86 87)
(87 88)
(88 89)
(89 90)
(90 91)
(91 92)
(92 93)
(93 94)
(94 95)
(95 96)
(96 97)
(97 98)
(98 99)
(99 100)
(100 101)
(101 102)
(102 103)
(103 104)
(104 105)
(105 106)
(106 107)
(107 108)
(108 109)
(109 110)
(110 111)
(111 112)
(112 113)
(113 114)
(114 115)
(115 116)
(116 117)
(117 118)
(118 119)
(119 120)
(120 121)
(121 122)
(122 123)
(123 124)
(124 125)
(125 126)
(126 127)
(127 128)
(128 129)
(129 130)
(130 131)
(131 132)
(132 133)
(133 134)
(134 135)
(135 136)
(136 137)
(137 138)
(138 139)
(139 140)
(140 141)
(141 72)
)

// * * * * * * * * * * * * * * * * * * * * * * * * * * * * * * * * * * * * * //


// ************************************************************************* //
