/*--------------------------------*- C++ -*----------------------------------*\
| =========                 |                                                 |
| \\      /  F ield         | OpenFOAM: The Open Source CFD Toolbox           |
|  \\    /   O peration     | Version:  2406                                  |
|   \\  /    A nd           | Website:  www.openfoam.com                      |
|    \\/     M anipulation  |                                                 |
\*---------------------------------------------------------------------------*/
FoamFile
{
    version     2.0;
    format      ascii;
    arch        "LSB;label=32;scalar=64";
    class       polyBoundaryMesh;
    location    "constant/polyMesh";
    object      boundary;
}
// * * * * * * * * * * * * * * * * * * * * * * * * * * * * * * * * * * * * * //

5
(
    BLADES
    {
        type            wall;
        inGroups        1(wall);
        nFaces          0;
        startFace       53114;
    }
    HUB_DISK
    {
        type            wall;
        inGroups        1(wall);
        nFaces          0;
        startFace       53114;
    }
    HUB
    {
        type            wall;
        inGroups        1(wall);
        nFaces          89;
        startFace       53114;
    }
    MRF_REGION
    {
        type            wall;
        inGroups        1(wall);
        nFaces          5726;
        startFace       53203;
    }
    procBoundary0to1
    {
        type            processor;
        inGroups        1(processor);
        nFaces          2202;
        startFace       58929;
        matchTolerance  0.0001;
        transform       unknown;
        myProcNo        0;
        neighbProcNo    1;
    }
)

// ************************************************************************* //
