/*--------------------------------*- C++ -*----------------------------------*\
| =========                 |                                                 |
| \\      /  F ield         | OpenFOAM: The Open Source CFD Toolbox           |
|  \\    /   O peration     | Version:  2406                                  |
|   \\  /    A nd           | Website:  www.openfoam.com                      |
|    \\/     M anipulation  |                                                 |
\*---------------------------------------------------------------------------*/
FoamFile
{
    version     2.0;
    format      ascii;
    arch        "LSB;label=32;scalar=64";
    class       polyBoundaryMesh;
    location    "constant/polyMesh";
    object      boundary;
}
// * * * * * * * * * * * * * * * * * * * * * * * * * * * * * * * * * * * * * //

3
(
    overset-1
    {
        type            overset;
        inGroups        1(overset);
        nFaces          5920;
        startFace       1088949;
    }
    HULL
    {
        type            wall;
        inGroups        1(wall);
        nFaces          26566;
        startFace       1094869;
    }
    HULL_DISK
    {
        type            wall;
        inGroups        1(wall);
        nFaces          92;
        startFace       1121435;
    }
)

// ************************************************************************* //
