/*--------------------------------*- C++ -*----------------------------------*\
| =========                 |                                                 |
| \\      /  F ield         | OpenFOAM: The Open Source CFD Toolbox           |
|  \\    /   O peration     | Version:  2406                                  |
|   \\  /    A nd           | Website:  www.openfoam.com                      |
|    \\/     M anipulation  |                                                 |
\*---------------------------------------------------------------------------*/
FoamFile
{
    version     2.0;
    format      ascii;
    arch        "LSB;label=32;scalar=64";
    class       polyBoundaryMesh;
    location    "constant/polyMesh";
    object      boundary;
}
// * * * * * * * * * * * * * * * * * * * * * * * * * * * * * * * * * * * * * //

7
(
    BLADES
    {
        type            wall;
        inGroups        1(wall);
        nFaces          1772;
        startFace       53069;
    }
    HUB_DISK
    {
        type            wall;
        inGroups        1(wall);
        nFaces          0;
        startFace       54841;
    }
    HUB
    {
        type            wall;
        inGroups        1(wall);
        nFaces          282;
        startFace       54841;
    }
    MRF_REGION
    {
        type            wall;
        inGroups        1(wall);
        nFaces          449;
        startFace       55123;
    }
    procBoundary1to0
    {
        type            processor;
        inGroups        1(processor);
        nFaces          2202;
        startFace       55572;
        matchTolerance  0.0001;
        transform       unknown;
        myProcNo        1;
        neighbProcNo    0;
    }
    procBoundary1to2
    {
        type            processor;
        inGroups        1(processor);
        nFaces          7371;
        startFace       57774;
        matchTolerance  0.0001;
        transform       unknown;
        myProcNo        1;
        neighbProcNo    2;
    }
    procBoundary1to3
    {
        type            processor;
        inGroups        1(processor);
        nFaces          284;
        startFace       65145;
        matchTolerance  0.0001;
        transform       unknown;
        myProcNo        1;
        neighbProcNo    3;
    }
)

// ************************************************************************* //
